*
* Deltares, Delft3D-QUICKIN Version 4.18.01.18383, Sep  7 2011, 14:23:24
* File creation date: 2024-07-11, 10:48:09
*
* Coordinate System = Cartesian
*
* column    1 : X
* column    2 : Y
* column    3 : depth
* column    4 : second depth
* column    5 : factor
* 
depth
   36381       5     201     181
  0.0000000E+00   0.0000000E+00  -9.9900000E+02  -9.9900000E+02   1.0000000E+00
  0.0000000E+00   0.0000000E+00  -9.9900000E+02  -9.9900000E+02   1.0000000E+00
  0.0000000E+00   0.0000000E+00  -9.9900000E+02  -9.9900000E+02   1.0000000E+00
  0.0000000E+00   0.0000000E+00  -9.9900000E+02  -9.9900000E+02   1.0000000E+00
  0.0000000E+00   0.0000000E+00  -9.9900000E+02  -9.9900000E+02   1.0000000E+00
  0.0000000E+00   0.0000000E+00  -9.9900000E+02  -9.9900000E+02   1.0000000E+00
  0.0000000E+00   0.0000000E+00  -9.9900000E+02  -9.9900000E+02   1.0000000E+00
  0.0000000E+00   0.0000000E+00  -9.9900000E+02  -9.9900000E+02   1.0000000E+00
  0.0000000E+00   0.0000000E+00  -9.9900000E+02  -9.9900000E+02   1.0000000E+00
  0.0000000E+00   0.0000000E+00  -9.9900000E+02  -9.9900000E+02   1.0000000E+00
  0.0000000E+00   0.0000000E+00  -9.9900000E+02  -9.9900000E+02   1.0000000E+00
  0.0000000E+00   0.0000000E+00  -9.9900000E+02  -9.9900000E+02   1.0000000E+00
  0.0000000E+00   0.0000000E+00  -9.9900000E+02  -9.9900000E+02   1.0000000E+00
  0.0000000E+00   0.0000000E+00  -9.9900000E+02  -9.9900000E+02   1.0000000E+00
  0.0000000E+00   0.0000000E+00  -9.9900000E+02  -9.9900000E+02   1.0000000E+00
  0.0000000E+00   0.0000000E+00  -9.9900000E+02  -9.9900000E+02   1.0000000E+00
  0.0000000E+00   0.0000000E+00  -9.9900000E+02  -9.9900000E+02   1.0000000E+00
  0.0000000E+00   0.0000000E+00  -9.9900000E+02  -9.9900000E+02   1.0000000E+00
  0.0000000E+00   0.0000000E+00  -9.9900000E+02  -9.9900000E+02   1.0000000E+00
  0.0000000E+00   0.0000000E+00  -9.9900000E+02  -9.9900000E+02   1.0000000E+00
  0.0000000E+00   0.0000000E+00  -9.9900000E+02  -9.9900000E+02   1.0000000E+00
  0.0000000E+00   0.0000000E+00  -9.9900000E+02  -9.9900000E+02   1.0000000E+00
  0.0000000E+00   0.0000000E+00  -9.9900000E+02  -9.9900000E+02   1.0000000E+00
  0.0000000E+00   0.0000000E+00  -9.9900000E+02  -9.9900000E+02   1.0000000E+00
  0.0000000E+00   0.0000000E+00  -9.9900000E+02  -9.9900000E+02   1.0000000E+00
  0.0000000E+00   0.0000000E+00  -9.9900000E+02  -9.9900000E+02   1.0000000E+00
  0.0000000E+00   0.0000000E+00  -9.9900000E+02  -9.9900000E+02   1.0000000E+00
  0.0000000E+00   0.0000000E+00  -9.9900000E+02  -9.9900000E+02   1.0000000E+00
  0.0000000E+00   0.0000000E+00  -9.9900000E+02  -9.9900000E+02   1.0000000E+00
  0.0000000E+00   0.0000000E+00  -9.9900000E+02  -9.9900000E+02   1.0000000E+00
  0.0000000E+00   0.0000000E+00  -9.9900000E+02  -9.9900000E+02   1.0000000E+00
  0.0000000E+00   0.0000000E+00  -9.9900000E+02  -9.9900000E+02   1.0000000E+00
  0.0000000E+00   0.0000000E+00  -9.9900000E+02  -9.9900000E+02   1.0000000E+00
  0.0000000E+00   0.0000000E+00  -9.9900000E+02  -9.9900000E+02   1.0000000E+00
  0.0000000E+00   0.0000000E+00  -9.9900000E+02  -9.9900000E+02   1.0000000E+00
  0.0000000E+00   0.0000000E+00  -9.9900000E+02  -9.9900000E+02   1.0000000E+00
  0.0000000E+00   0.0000000E+00  -9.9900000E+02  -9.9900000E+02   1.0000000E+00
  0.0000000E+00   0.0000000E+00  -9.9900000E+02  -9.9900000E+02   1.0000000E+00
  0.0000000E+00   0.0000000E+00  -9.9900000E+02  -9.9900000E+02   1.0000000E+00
  0.0000000E+00   0.0000000E+00  -9.9900000E+02  -9.9900000E+02   1.0000000E+00
  0.0000000E+00   0.0000000E+00  -9.9900000E+02  -9.9900000E+02   1.0000000E+00
  0.0000000E+00   0.0000000E+00  -9.9900000E+02  -9.9900000E+02   1.0000000E+00
  0.0000000E+00   0.0000000E+00  -9.9900000E+02  -9.9900000E+02   1.0000000E+00
  0.0000000E+00   0.0000000E+00  -9.9900000E+02  -9.9900000E+02   1.0000000E+00
  0.0000000E+00   0.0000000E+00  -9.9900000E+02  -9.9900000E+02   1.0000000E+00
  0.0000000E+00   0.0000000E+00  -9.9900000E+02  -9.9900000E+02   1.0000000E+00
  0.0000000E+00   0.0000000E+00  -9.9900000E+02  -9.9900000E+02   1.0000000E+00
  0.0000000E+00   0.0000000E+00  -9.9900000E+02  -9.9900000E+02   1.0000000E+00
  0.0000000E+00   0.0000000E+00  -9.9900000E+02  -9.9900000E+02   1.0000000E+00
  0.0000000E+00   0.0000000E+00  -9.9900000E+02  -9.9900000E+02   1.0000000E+00
  0.0000000E+00   0.0000000E+00  -9.9900000E+02  -9.9900000E+02   1.0000000E+00
  0.0000000E+00   0.0000000E+00  -9.9900000E+02  -9.9900000E+02   1.0000000E+00
  0.0000000E+00   0.0000000E+00  -9.9900000E+02  -9.9900000E+02   1.0000000E+00
  0.0000000E+00   0.0000000E+00  -9.9900000E+02  -9.9900000E+02   1.0000000E+00
  0.0000000E+00   0.0000000E+00  -9.9900000E+02  -9.9900000E+02   1.0000000E+00
  0.0000000E+00   0.0000000E+00  -9.9900000E+02  -9.9900000E+02   1.0000000E+00
  0.0000000E+00   0.0000000E+00  -9.9900000E+02  -9.9900000E+02   1.0000000E+00
  0.0000000E+00   0.0000000E+00  -9.9900000E+02  -9.9900000E+02   1.0000000E+00
  0.0000000E+00   0.0000000E+00  -9.9900000E+02  -9.9900000E+02   1.0000000E+00
  0.0000000E+00   0.0000000E+00  -9.9900000E+02  -9.9900000E+02   1.0000000E+00
  0.0000000E+00   0.0000000E+00  -9.9900000E+02  -9.9900000E+02   1.0000000E+00
  0.0000000E+00   0.0000000E+00  -9.9900000E+02  -9.9900000E+02   1.0000000E+00
  0.0000000E+00   0.0000000E+00  -9.9900000E+02  -9.9900000E+02   1.0000000E+00
  0.0000000E+00   0.0000000E+00  -9.9900000E+02  -9.9900000E+02   1.0000000E+00
  0.0000000E+00   0.0000000E+00  -9.9900000E+02  -9.9900000E+02   1.0000000E+00
  0.0000000E+00   0.0000000E+00  -9.9900000E+02  -9.9900000E+02   1.0000000E+00
  0.0000000E+00   0.0000000E+00  -9.9900000E+02  -9.9900000E+02   1.0000000E+00
  0.0000000E+00   0.0000000E+00  -9.9900000E+02  -9.9900000E+02   1.0000000E+00
  0.0000000E+00   0.0000000E+00  -9.9900000E+02  -9.9900000E+02   1.0000000E+00
  0.0000000E+00   0.0000000E+00  -9.9900000E+02  -9.9900000E+02   1.0000000E+00
  0.0000000E+00   0.0000000E+00  -9.9900000E+02  -9.9900000E+02   1.0000000E+00
  0.0000000E+00   0.0000000E+00  -9.9900000E+02  -9.9900000E+02   1.0000000E+00
  0.0000000E+00   0.0000000E+00  -9.9900000E+02  -9.9900000E+02   1.0000000E+00
  0.0000000E+00   0.0000000E+00  -9.9900000E+02  -9.9900000E+02   1.0000000E+00
  0.0000000E+00   0.0000000E+00  -9.9900000E+02  -9.9900000E+02   1.0000000E+00
  0.0000000E+00   0.0000000E+00  -9.9900000E+02  -9.9900000E+02   1.0000000E+00
  0.0000000E+00   0.0000000E+00  -9.9900000E+02  -9.9900000E+02   1.0000000E+00
  0.0000000E+00   0.0000000E+00  -9.9900000E+02  -9.9900000E+02   1.0000000E+00
  0.0000000E+00   0.0000000E+00  -9.9900000E+02  -9.9900000E+02   1.0000000E+00
  0.0000000E+00   0.0000000E+00  -9.9900000E+02  -9.9900000E+02   1.0000000E+00
  0.0000000E+00   0.0000000E+00  -9.9900000E+02  -9.9900000E+02   1.0000000E+00
  0.0000000E+00   0.0000000E+00  -9.9900000E+02  -9.9900000E+02   1.0000000E+00
  0.0000000E+00   0.0000000E+00  -9.9900000E+02  -9.9900000E+02   1.0000000E+00
  0.0000000E+00   0.0000000E+00  -9.9900000E+02  -9.9900000E+02   1.0000000E+00
  0.0000000E+00   0.0000000E+00  -9.9900000E+02  -9.9900000E+02   1.0000000E+00
  0.0000000E+00   0.0000000E+00  -9.9900000E+02  -9.9900000E+02   1.0000000E+00
  0.0000000E+00   0.0000000E+00  -9.9900000E+02  -9.9900000E+02   1.0000000E+00
  0.0000000E+00   0.0000000E+00  -9.9900000E+02  -9.9900000E+02   1.0000000E+00
  0.0000000E+00   0.0000000E+00  -9.9900000E+02  -9.9900000E+02   1.0000000E+00
  0.0000000E+00   0.0000000E+00  -9.9900000E+02  -9.9900000E+02   1.0000000E+00
  0.0000000E+00   0.0000000E+00  -9.9900000E+02  -9.9900000E+02   1.0000000E+00
  0.0000000E+00   0.0000000E+00  -9.9900000E+02  -9.9900000E+02   1.0000000E+00
  0.0000000E+00   0.0000000E+00  -9.9900000E+02  -9.9900000E+02   1.0000000E+00
  0.0000000E+00   0.0000000E+00  -9.9900000E+02  -9.9900000E+02   1.0000000E+00
  0.0000000E+00   0.0000000E+00  -9.9900000E+02  -9.9900000E+02   1.0000000E+00
  0.0000000E+00   0.0000000E+00  -9.9900000E+02  -9.9900000E+02   1.0000000E+00
  0.0000000E+00   0.0000000E+00  -9.9900000E+02  -9.9900000E+02   1.0000000E+00
  0.0000000E+00   0.0000000E+00  -9.9900000E+02  -9.9900000E+02   1.0000000E+00
  0.0000000E+00   0.0000000E+00  -9.9900000E+02  -9.9900000E+02   1.0000000E+00
  0.0000000E+00   0.0000000E+00  -9.9900000E+02  -9.9900000E+02   1.0000000E+00
  0.0000000E+00   0.0000000E+00  -9.9900000E+02  -9.9900000E+02   1.0000000E+00
  0.0000000E+00   0.0000000E+00  -9.9900000E+02  -9.9900000E+02   1.0000000E+00
  0.0000000E+00   0.0000000E+00  -9.9900000E+02  -9.9900000E+02   1.0000000E+00
  0.0000000E+00   0.0000000E+00  -9.9900000E+02  -9.9900000E+02   1.0000000E+00
  0.0000000E+00   0.0000000E+00  -9.9900000E+02  -9.9900000E+02   1.0000000E+00
  0.0000000E+00   0.0000000E+00  -9.9900000E+02  -9.9900000E+02   1.0000000E+00
  0.0000000E+00   0.0000000E+00  -9.9900000E+02  -9.9900000E+02   1.0000000E+00
  0.0000000E+00   0.0000000E+00  -9.9900000E+02  -9.9900000E+02   1.0000000E+00
  0.0000000E+00   0.0000000E+00  -9.9900000E+02  -9.9900000E+02   1.0000000E+00
  0.0000000E+00   0.0000000E+00  -9.9900000E+02  -9.9900000E+02   1.0000000E+00
  0.0000000E+00   0.0000000E+00  -9.9900000E+02  -9.9900000E+02   1.0000000E+00
  0.0000000E+00   0.0000000E+00  -9.9900000E+02  -9.9900000E+02   1.0000000E+00
  0.0000000E+00   0.0000000E+00  -9.9900000E+02  -9.9900000E+02   1.0000000E+00
  0.0000000E+00   0.0000000E+00  -9.9900000E+02  -9.9900000E+02   1.0000000E+00
  0.0000000E+00   0.0000000E+00  -9.9900000E+02  -9.9900000E+02   1.0000000E+00
  0.0000000E+00   0.0000000E+00  -9.9900000E+02  -9.9900000E+02   1.0000000E+00
  0.0000000E+00   0.0000000E+00  -9.9900000E+02  -9.9900000E+02   1.0000000E+00
  0.0000000E+00   0.0000000E+00  -9.9900000E+02  -9.9900000E+02   1.0000000E+00
  0.0000000E+00   0.0000000E+00  -9.9900000E+02  -9.9900000E+02   1.0000000E+00
  0.0000000E+00   0.0000000E+00  -9.9900000E+02  -9.9900000E+02   1.0000000E+00
  0.0000000E+00   0.0000000E+00  -9.9900000E+02  -9.9900000E+02   1.0000000E+00
  0.0000000E+00   0.0000000E+00  -9.9900000E+02  -9.9900000E+02   1.0000000E+00
  0.0000000E+00   0.0000000E+00  -9.9900000E+02  -9.9900000E+02   1.0000000E+00
  0.0000000E+00   0.0000000E+00  -9.9900000E+02  -9.9900000E+02   1.0000000E+00
  0.0000000E+00   0.0000000E+00  -9.9900000E+02  -9.9900000E+02   1.0000000E+00
  0.0000000E+00   0.0000000E+00  -9.9900000E+02  -9.9900000E+02   1.0000000E+00
  0.0000000E+00   0.0000000E+00  -9.9900000E+02  -9.9900000E+02   1.0000000E+00
  0.0000000E+00   0.0000000E+00  -9.9900000E+02  -9.9900000E+02   1.0000000E+00
  0.0000000E+00   0.0000000E+00  -9.9900000E+02  -9.9900000E+02   1.0000000E+00
  0.0000000E+00   0.0000000E+00  -9.9900000E+02  -9.9900000E+02   1.0000000E+00
  0.0000000E+00   0.0000000E+00  -9.9900000E+02  -9.9900000E+02   1.0000000E+00
  0.0000000E+00   0.0000000E+00  -9.9900000E+02  -9.9900000E+02   1.0000000E+00
  0.0000000E+00   0.0000000E+00  -9.9900000E+02  -9.9900000E+02   1.0000000E+00
  0.0000000E+00   0.0000000E+00  -9.9900000E+02  -9.9900000E+02   1.0000000E+00
  0.0000000E+00   0.0000000E+00  -9.9900000E+02  -9.9900000E+02   1.0000000E+00
  0.0000000E+00   0.0000000E+00  -9.9900000E+02  -9.9900000E+02   1.0000000E+00
  0.0000000E+00   0.0000000E+00  -9.9900000E+02  -9.9900000E+02   1.0000000E+00
  0.0000000E+00   0.0000000E+00  -9.9900000E+02  -9.9900000E+02   1.0000000E+00
  0.0000000E+00   0.0000000E+00  -9.9900000E+02  -9.9900000E+02   1.0000000E+00
  0.0000000E+00   0.0000000E+00  -9.9900000E+02  -9.9900000E+02   1.0000000E+00
  0.0000000E+00   0.0000000E+00  -9.9900000E+02  -9.9900000E+02   1.0000000E+00
  0.0000000E+00   0.0000000E+00  -9.9900000E+02  -9.9900000E+02   1.0000000E+00
  0.0000000E+00   0.0000000E+00  -9.9900000E+02  -9.9900000E+02   1.0000000E+00
  0.0000000E+00   0.0000000E+00  -9.9900000E+02  -9.9900000E+02   1.0000000E+00
  0.0000000E+00   0.0000000E+00  -9.9900000E+02  -9.9900000E+02   1.0000000E+00
  0.0000000E+00   0.0000000E+00  -9.9900000E+02  -9.9900000E+02   1.0000000E+00
  0.0000000E+00   0.0000000E+00  -9.9900000E+02  -9.9900000E+02   1.0000000E+00
  0.0000000E+00   0.0000000E+00  -9.9900000E+02  -9.9900000E+02   1.0000000E+00
  0.0000000E+00   0.0000000E+00  -9.9900000E+02  -9.9900000E+02   1.0000000E+00
  0.0000000E+00   0.0000000E+00  -9.9900000E+02  -9.9900000E+02   1.0000000E+00
  0.0000000E+00   0.0000000E+00  -9.9900000E+02  -9.9900000E+02   1.0000000E+00
  0.0000000E+00   0.0000000E+00  -9.9900000E+02  -9.9900000E+02   1.0000000E+00
  0.0000000E+00   0.0000000E+00  -9.9900000E+02  -9.9900000E+02   1.0000000E+00
  0.0000000E+00   0.0000000E+00  -9.9900000E+02  -9.9900000E+02   1.0000000E+00
  0.0000000E+00   0.0000000E+00  -9.9900000E+02  -9.9900000E+02   1.0000000E+00
  0.0000000E+00   0.0000000E+00  -9.9900000E+02  -9.9900000E+02   1.0000000E+00
  0.0000000E+00   0.0000000E+00  -9.9900000E+02  -9.9900000E+02   1.0000000E+00
  0.0000000E+00   0.0000000E+00  -9.9900000E+02  -9.9900000E+02   1.0000000E+00
  0.0000000E+00   0.0000000E+00  -9.9900000E+02  -9.9900000E+02   1.0000000E+00
  0.0000000E+00   0.0000000E+00  -9.9900000E+02  -9.9900000E+02   1.0000000E+00
  0.0000000E+00   0.0000000E+00  -9.9900000E+02  -9.9900000E+02   1.0000000E+00
  0.0000000E+00   0.0000000E+00  -9.9900000E+02  -9.9900000E+02   1.0000000E+00
  0.0000000E+00   0.0000000E+00  -9.9900000E+02  -9.9900000E+02   1.0000000E+00
  0.0000000E+00   0.0000000E+00  -9.9900000E+02  -9.9900000E+02   1.0000000E+00
  0.0000000E+00   0.0000000E+00  -9.9900000E+02  -9.9900000E+02   1.0000000E+00
  0.0000000E+00   0.0000000E+00  -9.9900000E+02  -9.9900000E+02   1.0000000E+00
  0.0000000E+00   0.0000000E+00  -9.9900000E+02  -9.9900000E+02   1.0000000E+00
  0.0000000E+00   0.0000000E+00  -9.9900000E+02  -9.9900000E+02   1.0000000E+00
  0.0000000E+00   0.0000000E+00  -9.9900000E+02  -9.9900000E+02   1.0000000E+00
  0.0000000E+00   0.0000000E+00  -9.9900000E+02  -9.9900000E+02   1.0000000E+00
  0.0000000E+00   0.0000000E+00  -9.9900000E+02  -9.9900000E+02   1.0000000E+00
  0.0000000E+00   0.0000000E+00  -9.9900000E+02  -9.9900000E+02   1.0000000E+00
  0.0000000E+00   0.0000000E+00  -9.9900000E+02  -9.9900000E+02   1.0000000E+00
  0.0000000E+00   0.0000000E+00  -9.9900000E+02  -9.9900000E+02   1.0000000E+00
  0.0000000E+00   0.0000000E+00  -9.9900000E+02  -9.9900000E+02   1.0000000E+00
  0.0000000E+00   0.0000000E+00  -9.9900000E+02  -9.9900000E+02   1.0000000E+00
  0.0000000E+00   0.0000000E+00  -9.9900000E+02  -9.9900000E+02   1.0000000E+00
  0.0000000E+00   0.0000000E+00  -9.9900000E+02  -9.9900000E+02   1.0000000E+00
  0.0000000E+00   0.0000000E+00  -9.9900000E+02  -9.9900000E+02   1.0000000E+00
  0.0000000E+00   0.0000000E+00  -9.9900000E+02  -9.9900000E+02   1.0000000E+00
  0.0000000E+00   0.0000000E+00  -9.9900000E+02  -9.9900000E+02   1.0000000E+00
  0.0000000E+00   0.0000000E+00  -9.9900000E+02  -9.9900000E+02   1.0000000E+00
  0.0000000E+00   0.0000000E+00  -9.9900000E+02  -9.9900000E+02   1.0000000E+00
  0.0000000E+00   0.0000000E+00  -9.9900000E+02  -9.9900000E+02   1.0000000E+00
  0.0000000E+00   0.0000000E+00  -9.9900000E+02  -9.9900000E+02   1.0000000E+00
  0.0000000E+00   0.0000000E+00  -9.9900000E+02  -9.9900000E+02   1.0000000E+00
  7.7961916E+05   9.3171060E+06   4.2106774E+00  -9.9900000E+02   1.0000000E+00
  7.8036916E+05   9.3171060E+06   4.4109555E+00  -9.9900000E+02   1.0000000E+00
  7.8111916E+05   9.3171060E+06   4.4613157E+00  -9.9900000E+02   1.0000000E+00
  7.8186916E+05   9.3171060E+06   4.0947642E+00  -9.9900000E+02   1.0000000E+00
  7.8261916E+05   9.3171060E+06   3.5357016E+00  -9.9900000E+02   1.0000000E+00
  7.8336916E+05   9.3171060E+06   3.0825631E+00  -9.9900000E+02   1.0000000E+00
  7.8411916E+05   9.3171060E+06   2.8542257E+00  -9.9900000E+02   1.0000000E+00
  7.8486916E+05   9.3171060E+06   2.9314149E+00  -9.9900000E+02   1.0000000E+00
  7.8561916E+05   9.3171060E+06   3.4194132E+00  -9.9900000E+02   1.0000000E+00
  7.8636916E+05   9.3171060E+06   4.1513017E+00  -9.9900000E+02   1.0000000E+00
  7.8711916E+05   9.3171060E+06   4.7703037E+00  -9.9900000E+02   1.0000000E+00
  7.8786916E+05   9.3171060E+06   5.1695100E+00  -9.9900000E+02   1.0000000E+00
  7.8861916E+05   9.3171060E+06   5.1299810E+00  -9.9900000E+02   1.0000000E+00
  7.8936916E+05   9.3171060E+06   4.9449172E+00  -9.9900000E+02   1.0000000E+00
  7.9011916E+05   9.3171060E+06   4.7778384E+00  -9.9900000E+02   1.0000000E+00
  0.0000000E+00   0.0000000E+00  -9.9900000E+02  -9.9900000E+02   1.0000000E+00
  0.0000000E+00   0.0000000E+00  -9.9900000E+02  -9.9900000E+02   1.0000000E+00
  0.0000000E+00   0.0000000E+00  -9.9900000E+02  -9.9900000E+02   1.0000000E+00
  0.0000000E+00   0.0000000E+00  -9.9900000E+02  -9.9900000E+02   1.0000000E+00
  0.0000000E+00   0.0000000E+00  -9.9900000E+02  -9.9900000E+02   1.0000000E+00
  0.0000000E+00   0.0000000E+00  -9.9900000E+02  -9.9900000E+02   1.0000000E+00
  0.0000000E+00   0.0000000E+00  -9.9900000E+02  -9.9900000E+02   1.0000000E+00
  0.0000000E+00   0.0000000E+00  -9.9900000E+02  -9.9900000E+02   1.0000000E+00
  0.0000000E+00   0.0000000E+00  -9.9900000E+02  -9.9900000E+02   1.0000000E+00
  0.0000000E+00   0.0000000E+00  -9.9900000E+02  -9.9900000E+02   1.0000000E+00
  0.0000000E+00   0.0000000E+00  -9.9900000E+02  -9.9900000E+02   1.0000000E+00
  0.0000000E+00   0.0000000E+00  -9.9900000E+02  -9.9900000E+02   1.0000000E+00
  0.0000000E+00   0.0000000E+00  -9.9900000E+02  -9.9900000E+02   1.0000000E+00
  0.0000000E+00   0.0000000E+00  -9.9900000E+02  -9.9900000E+02   1.0000000E+00
  0.0000000E+00   0.0000000E+00  -9.9900000E+02  -9.9900000E+02   1.0000000E+00
  0.0000000E+00   0.0000000E+00  -9.9900000E+02  -9.9900000E+02   1.0000000E+00
  0.0000000E+00   0.0000000E+00  -9.9900000E+02  -9.9900000E+02   1.0000000E+00
  0.0000000E+00   0.0000000E+00  -9.9900000E+02  -9.9900000E+02   1.0000000E+00
  0.0000000E+00   0.0000000E+00  -9.9900000E+02  -9.9900000E+02   1.0000000E+00
  0.0000000E+00   0.0000000E+00  -9.9900000E+02  -9.9900000E+02   1.0000000E+00
  0.0000000E+00   0.0000000E+00  -9.9900000E+02  -9.9900000E+02   1.0000000E+00
  0.0000000E+00   0.0000000E+00  -9.9900000E+02  -9.9900000E+02   1.0000000E+00
  0.0000000E+00   0.0000000E+00  -9.9900000E+02  -9.9900000E+02   1.0000000E+00
  0.0000000E+00   0.0000000E+00  -9.9900000E+02  -9.9900000E+02   1.0000000E+00
  0.0000000E+00   0.0000000E+00  -9.9900000E+02  -9.9900000E+02   1.0000000E+00
  0.0000000E+00   0.0000000E+00  -9.9900000E+02  -9.9900000E+02   1.0000000E+00
  0.0000000E+00   0.0000000E+00  -9.9900000E+02  -9.9900000E+02   1.0000000E+00
  0.0000000E+00   0.0000000E+00  -9.9900000E+02  -9.9900000E+02   1.0000000E+00
  0.0000000E+00   0.0000000E+00  -9.9900000E+02  -9.9900000E+02   1.0000000E+00
  0.0000000E+00   0.0000000E+00  -9.9900000E+02  -9.9900000E+02   1.0000000E+00
  0.0000000E+00   0.0000000E+00  -9.9900000E+02  -9.9900000E+02   1.0000000E+00
  0.0000000E+00   0.0000000E+00  -9.9900000E+02  -9.9900000E+02   1.0000000E+00
  0.0000000E+00   0.0000000E+00  -9.9900000E+02  -9.9900000E+02   1.0000000E+00
  0.0000000E+00   0.0000000E+00  -9.9900000E+02  -9.9900000E+02   1.0000000E+00
  0.0000000E+00   0.0000000E+00  -9.9900000E+02  -9.9900000E+02   1.0000000E+00
  0.0000000E+00   0.0000000E+00  -9.9900000E+02  -9.9900000E+02   1.0000000E+00
  0.0000000E+00   0.0000000E+00  -9.9900000E+02  -9.9900000E+02   1.0000000E+00
  0.0000000E+00   0.0000000E+00  -9.9900000E+02  -9.9900000E+02   1.0000000E+00
  0.0000000E+00   0.0000000E+00  -9.9900000E+02  -9.9900000E+02   1.0000000E+00
  0.0000000E+00   0.0000000E+00  -9.9900000E+02  -9.9900000E+02   1.0000000E+00
  0.0000000E+00   0.0000000E+00  -9.9900000E+02  -9.9900000E+02   1.0000000E+00
  0.0000000E+00   0.0000000E+00  -9.9900000E+02  -9.9900000E+02   1.0000000E+00
  0.0000000E+00   0.0000000E+00  -9.9900000E+02  -9.9900000E+02   1.0000000E+00
  0.0000000E+00   0.0000000E+00  -9.9900000E+02  -9.9900000E+02   1.0000000E+00
  0.0000000E+00   0.0000000E+00  -9.9900000E+02  -9.9900000E+02   1.0000000E+00
  0.0000000E+00   0.0000000E+00  -9.9900000E+02  -9.9900000E+02   1.0000000E+00
  0.0000000E+00   0.0000000E+00  -9.9900000E+02  -9.9900000E+02   1.0000000E+00
  0.0000000E+00   0.0000000E+00  -9.9900000E+02  -9.9900000E+02   1.0000000E+00
  0.0000000E+00   0.0000000E+00  -9.9900000E+02  -9.9900000E+02   1.0000000E+00
  0.0000000E+00   0.0000000E+00  -9.9900000E+02  -9.9900000E+02   1.0000000E+00
  0.0000000E+00   0.0000000E+00  -9.9900000E+02  -9.9900000E+02   1.0000000E+00
  0.0000000E+00   0.0000000E+00  -9.9900000E+02  -9.9900000E+02   1.0000000E+00
  0.0000000E+00   0.0000000E+00  -9.9900000E+02  -9.9900000E+02   1.0000000E+00
  0.0000000E+00   0.0000000E+00  -9.9900000E+02  -9.9900000E+02   1.0000000E+00
  0.0000000E+00   0.0000000E+00  -9.9900000E+02  -9.9900000E+02   1.0000000E+00
  0.0000000E+00   0.0000000E+00  -9.9900000E+02  -9.9900000E+02   1.0000000E+00
  0.0000000E+00   0.0000000E+00  -9.9900000E+02  -9.9900000E+02   1.0000000E+00
  0.0000000E+00   0.0000000E+00  -9.9900000E+02  -9.9900000E+02   1.0000000E+00
  0.0000000E+00   0.0000000E+00  -9.9900000E+02  -9.9900000E+02   1.0000000E+00
  0.0000000E+00   0.0000000E+00  -9.9900000E+02  -9.9900000E+02   1.0000000E+00
  0.0000000E+00   0.0000000E+00  -9.9900000E+02  -9.9900000E+02   1.0000000E+00
  0.0000000E+00   0.0000000E+00  -9.9900000E+02  -9.9900000E+02   1.0000000E+00
  0.0000000E+00   0.0000000E+00  -9.9900000E+02  -9.9900000E+02   1.0000000E+00
  0.0000000E+00   0.0000000E+00  -9.9900000E+02  -9.9900000E+02   1.0000000E+00
  0.0000000E+00   0.0000000E+00  -9.9900000E+02  -9.9900000E+02   1.0000000E+00
  0.0000000E+00   0.0000000E+00  -9.9900000E+02  -9.9900000E+02   1.0000000E+00
  0.0000000E+00   0.0000000E+00  -9.9900000E+02  -9.9900000E+02   1.0000000E+00
  0.0000000E+00   0.0000000E+00  -9.9900000E+02  -9.9900000E+02   1.0000000E+00
  0.0000000E+00   0.0000000E+00  -9.9900000E+02  -9.9900000E+02   1.0000000E+00
  0.0000000E+00   0.0000000E+00  -9.9900000E+02  -9.9900000E+02   1.0000000E+00
  0.0000000E+00   0.0000000E+00  -9.9900000E+02  -9.9900000E+02   1.0000000E+00
  0.0000000E+00   0.0000000E+00  -9.9900000E+02  -9.9900000E+02   1.0000000E+00
  0.0000000E+00   0.0000000E+00  -9.9900000E+02  -9.9900000E+02   1.0000000E+00
  0.0000000E+00   0.0000000E+00  -9.9900000E+02  -9.9900000E+02   1.0000000E+00
  0.0000000E+00   0.0000000E+00  -9.9900000E+02  -9.9900000E+02   1.0000000E+00
  0.0000000E+00   0.0000000E+00  -9.9900000E+02  -9.9900000E+02   1.0000000E+00
  0.0000000E+00   0.0000000E+00  -9.9900000E+02  -9.9900000E+02   1.0000000E+00
  0.0000000E+00   0.0000000E+00  -9.9900000E+02  -9.9900000E+02   1.0000000E+00
  0.0000000E+00   0.0000000E+00  -9.9900000E+02  -9.9900000E+02   1.0000000E+00
  0.0000000E+00   0.0000000E+00  -9.9900000E+02  -9.9900000E+02   1.0000000E+00
  0.0000000E+00   0.0000000E+00  -9.9900000E+02  -9.9900000E+02   1.0000000E+00
  0.0000000E+00   0.0000000E+00  -9.9900000E+02  -9.9900000E+02   1.0000000E+00
  0.0000000E+00   0.0000000E+00  -9.9900000E+02  -9.9900000E+02   1.0000000E+00
  0.0000000E+00   0.0000000E+00  -9.9900000E+02  -9.9900000E+02   1.0000000E+00
  0.0000000E+00   0.0000000E+00  -9.9900000E+02  -9.9900000E+02   1.0000000E+00
  0.0000000E+00   0.0000000E+00  -9.9900000E+02  -9.9900000E+02   1.0000000E+00
  0.0000000E+00   0.0000000E+00  -9.9900000E+02  -9.9900000E+02   1.0000000E+00
  0.0000000E+00   0.0000000E+00  -9.9900000E+02  -9.9900000E+02   1.0000000E+00
  0.0000000E+00   0.0000000E+00  -9.9900000E+02  -9.9900000E+02   1.0000000E+00
  0.0000000E+00   0.0000000E+00  -9.9900000E+02  -9.9900000E+02   1.0000000E+00
  0.0000000E+00   0.0000000E+00  -9.9900000E+02  -9.9900000E+02   1.0000000E+00
  0.0000000E+00   0.0000000E+00  -9.9900000E+02  -9.9900000E+02   1.0000000E+00
  0.0000000E+00   0.0000000E+00  -9.9900000E+02  -9.9900000E+02   1.0000000E+00
  0.0000000E+00   0.0000000E+00  -9.9900000E+02  -9.9900000E+02   1.0000000E+00
  0.0000000E+00   0.0000000E+00  -9.9900000E+02  -9.9900000E+02   1.0000000E+00
  0.0000000E+00   0.0000000E+00  -9.9900000E+02  -9.9900000E+02   1.0000000E+00
  0.0000000E+00   0.0000000E+00  -9.9900000E+02  -9.9900000E+02   1.0000000E+00
  0.0000000E+00   0.0000000E+00  -9.9900000E+02  -9.9900000E+02   1.0000000E+00
  0.0000000E+00   0.0000000E+00  -9.9900000E+02  -9.9900000E+02   1.0000000E+00
  0.0000000E+00   0.0000000E+00  -9.9900000E+02  -9.9900000E+02   1.0000000E+00
  0.0000000E+00   0.0000000E+00  -9.9900000E+02  -9.9900000E+02   1.0000000E+00
  0.0000000E+00   0.0000000E+00  -9.9900000E+02  -9.9900000E+02   1.0000000E+00
  0.0000000E+00   0.0000000E+00  -9.9900000E+02  -9.9900000E+02   1.0000000E+00
  0.0000000E+00   0.0000000E+00  -9.9900000E+02  -9.9900000E+02   1.0000000E+00
  0.0000000E+00   0.0000000E+00  -9.9900000E+02  -9.9900000E+02   1.0000000E+00
  0.0000000E+00   0.0000000E+00  -9.9900000E+02  -9.9900000E+02   1.0000000E+00
  0.0000000E+00   0.0000000E+00  -9.9900000E+02  -9.9900000E+02   1.0000000E+00
  0.0000000E+00   0.0000000E+00  -9.9900000E+02  -9.9900000E+02   1.0000000E+00
  0.0000000E+00   0.0000000E+00  -9.9900000E+02  -9.9900000E+02   1.0000000E+00
  0.0000000E+00   0.0000000E+00  -9.9900000E+02  -9.9900000E+02   1.0000000E+00
  0.0000000E+00   0.0000000E+00  -9.9900000E+02  -9.9900000E+02   1.0000000E+00
  0.0000000E+00   0.0000000E+00  -9.9900000E+02  -9.9900000E+02   1.0000000E+00
  0.0000000E+00   0.0000000E+00  -9.9900000E+02  -9.9900000E+02   1.0000000E+00
  0.0000000E+00   0.0000000E+00  -9.9900000E+02  -9.9900000E+02   1.0000000E+00
  0.0000000E+00   0.0000000E+00  -9.9900000E+02  -9.9900000E+02   1.0000000E+00
  0.0000000E+00   0.0000000E+00  -9.9900000E+02  -9.9900000E+02   1.0000000E+00
  0.0000000E+00   0.0000000E+00  -9.9900000E+02  -9.9900000E+02   1.0000000E+00
  0.0000000E+00   0.0000000E+00  -9.9900000E+02  -9.9900000E+02   1.0000000E+00
  0.0000000E+00   0.0000000E+00  -9.9900000E+02  -9.9900000E+02   1.0000000E+00
  0.0000000E+00   0.0000000E+00  -9.9900000E+02  -9.9900000E+02   1.0000000E+00
  0.0000000E+00   0.0000000E+00  -9.9900000E+02  -9.9900000E+02   1.0000000E+00
  0.0000000E+00   0.0000000E+00  -9.9900000E+02  -9.9900000E+02   1.0000000E+00
  0.0000000E+00   0.0000000E+00  -9.9900000E+02  -9.9900000E+02   1.0000000E+00
  0.0000000E+00   0.0000000E+00  -9.9900000E+02  -9.9900000E+02   1.0000000E+00
  0.0000000E+00   0.0000000E+00  -9.9900000E+02  -9.9900000E+02   1.0000000E+00
  0.0000000E+00   0.0000000E+00  -9.9900000E+02  -9.9900000E+02   1.0000000E+00
  0.0000000E+00   0.0000000E+00  -9.9900000E+02  -9.9900000E+02   1.0000000E+00
  0.0000000E+00   0.0000000E+00  -9.9900000E+02  -9.9900000E+02   1.0000000E+00
  0.0000000E+00   0.0000000E+00  -9.9900000E+02  -9.9900000E+02   1.0000000E+00
  0.0000000E+00   0.0000000E+00  -9.9900000E+02  -9.9900000E+02   1.0000000E+00
  0.0000000E+00   0.0000000E+00  -9.9900000E+02  -9.9900000E+02   1.0000000E+00
  0.0000000E+00   0.0000000E+00  -9.9900000E+02  -9.9900000E+02   1.0000000E+00
  0.0000000E+00   0.0000000E+00  -9.9900000E+02  -9.9900000E+02   1.0000000E+00
  0.0000000E+00   0.0000000E+00  -9.9900000E+02  -9.9900000E+02   1.0000000E+00
  0.0000000E+00   0.0000000E+00  -9.9900000E+02  -9.9900000E+02   1.0000000E+00
  0.0000000E+00   0.0000000E+00  -9.9900000E+02  -9.9900000E+02   1.0000000E+00
  0.0000000E+00   0.0000000E+00  -9.9900000E+02  -9.9900000E+02   1.0000000E+00
  0.0000000E+00   0.0000000E+00  -9.9900000E+02  -9.9900000E+02   1.0000000E+00
  0.0000000E+00   0.0000000E+00  -9.9900000E+02  -9.9900000E+02   1.0000000E+00
  0.0000000E+00   0.0000000E+00  -9.9900000E+02  -9.9900000E+02   1.0000000E+00
  0.0000000E+00   0.0000000E+00  -9.9900000E+02  -9.9900000E+02   1.0000000E+00
  0.0000000E+00   0.0000000E+00  -9.9900000E+02  -9.9900000E+02   1.0000000E+00
  0.0000000E+00   0.0000000E+00  -9.9900000E+02  -9.9900000E+02   1.0000000E+00
  0.0000000E+00   0.0000000E+00  -9.9900000E+02  -9.9900000E+02   1.0000000E+00
  0.0000000E+00   0.0000000E+00  -9.9900000E+02  -9.9900000E+02   1.0000000E+00
  0.0000000E+00   0.0000000E+00  -9.9900000E+02  -9.9900000E+02   1.0000000E+00
  0.0000000E+00   0.0000000E+00  -9.9900000E+02  -9.9900000E+02   1.0000000E+00
  0.0000000E+00   0.0000000E+00  -9.9900000E+02  -9.9900000E+02   1.0000000E+00
  0.0000000E+00   0.0000000E+00  -9.9900000E+02  -9.9900000E+02   1.0000000E+00
  0.0000000E+00   0.0000000E+00  -9.9900000E+02  -9.9900000E+02   1.0000000E+00
  0.0000000E+00   0.0000000E+00  -9.9900000E+02  -9.9900000E+02   1.0000000E+00
  0.0000000E+00   0.0000000E+00  -9.9900000E+02  -9.9900000E+02   1.0000000E+00
  0.0000000E+00   0.0000000E+00  -9.9900000E+02  -9.9900000E+02   1.0000000E+00
  0.0000000E+00   0.0000000E+00  -9.9900000E+02  -9.9900000E+02   1.0000000E+00
  0.0000000E+00   0.0000000E+00  -9.9900000E+02  -9.9900000E+02   1.0000000E+00
  0.0000000E+00   0.0000000E+00  -9.9900000E+02  -9.9900000E+02   1.0000000E+00
  0.0000000E+00   0.0000000E+00  -9.9900000E+02  -9.9900000E+02   1.0000000E+00
  0.0000000E+00   0.0000000E+00  -9.9900000E+02  -9.9900000E+02   1.0000000E+00
  0.0000000E+00   0.0000000E+00  -9.9900000E+02  -9.9900000E+02   1.0000000E+00
  0.0000000E+00   0.0000000E+00  -9.9900000E+02  -9.9900000E+02   1.0000000E+00
  0.0000000E+00   0.0000000E+00  -9.9900000E+02  -9.9900000E+02   1.0000000E+00
  0.0000000E+00   0.0000000E+00  -9.9900000E+02  -9.9900000E+02   1.0000000E+00
  0.0000000E+00   0.0000000E+00  -9.9900000E+02  -9.9900000E+02   1.0000000E+00
  0.0000000E+00   0.0000000E+00  -9.9900000E+02  -9.9900000E+02   1.0000000E+00
  0.0000000E+00   0.0000000E+00  -9.9900000E+02  -9.9900000E+02   1.0000000E+00
  0.0000000E+00   0.0000000E+00  -9.9900000E+02  -9.9900000E+02   1.0000000E+00
  0.0000000E+00   0.0000000E+00  -9.9900000E+02  -9.9900000E+02   1.0000000E+00
  0.0000000E+00   0.0000000E+00  -9.9900000E+02  -9.9900000E+02   1.0000000E+00
  0.0000000E+00   0.0000000E+00  -9.9900000E+02  -9.9900000E+02   1.0000000E+00
  0.0000000E+00   0.0000000E+00  -9.9900000E+02  -9.9900000E+02   1.0000000E+00
  0.0000000E+00   0.0000000E+00  -9.9900000E+02  -9.9900000E+02   1.0000000E+00
  0.0000000E+00   0.0000000E+00  -9.9900000E+02  -9.9900000E+02   1.0000000E+00
  0.0000000E+00   0.0000000E+00  -9.9900000E+02  -9.9900000E+02   1.0000000E+00
  0.0000000E+00   0.0000000E+00  -9.9900000E+02  -9.9900000E+02   1.0000000E+00
  0.0000000E+00   0.0000000E+00  -9.9900000E+02  -9.9900000E+02   1.0000000E+00
  0.0000000E+00   0.0000000E+00  -9.9900000E+02  -9.9900000E+02   1.0000000E+00
  0.0000000E+00   0.0000000E+00  -9.9900000E+02  -9.9900000E+02   1.0000000E+00
  0.0000000E+00   0.0000000E+00  -9.9900000E+02  -9.9900000E+02   1.0000000E+00
  0.0000000E+00   0.0000000E+00  -9.9900000E+02  -9.9900000E+02   1.0000000E+00
  0.0000000E+00   0.0000000E+00  -9.9900000E+02  -9.9900000E+02   1.0000000E+00
  0.0000000E+00   0.0000000E+00  -9.9900000E+02  -9.9900000E+02   1.0000000E+00
  0.0000000E+00   0.0000000E+00  -9.9900000E+02  -9.9900000E+02   1.0000000E+00
  0.0000000E+00   0.0000000E+00  -9.9900000E+02  -9.9900000E+02   1.0000000E+00
  0.0000000E+00   0.0000000E+00  -9.9900000E+02  -9.9900000E+02   1.0000000E+00
  7.7811916E+05   9.3178560E+06   3.5851890E+00  -9.9900000E+02   1.0000000E+00
  7.7886916E+05   9.3178560E+06   4.0000000E+00  -9.9900000E+02   1.0000000E+00
  7.7961916E+05   9.3178560E+06   4.0000000E+00  -9.9900000E+02   1.0000000E+00
  7.8036916E+05   9.3178560E+06   4.4362111E+00  -9.9900000E+02   1.0000000E+00
  7.8111916E+05   9.3178560E+06   5.0000000E+00  -9.9900000E+02   1.0000000E+00
  7.8186916E+05   9.3178560E+06   4.3124591E+00  -9.9900000E+02   1.0000000E+00
  7.8261916E+05   9.3178560E+06   3.1535519E+00  -9.9900000E+02   1.0000000E+00
  7.8336916E+05   9.3178560E+06   3.1535519E+00  -9.9900000E+02   1.0000000E+00
  7.8411916E+05   9.3178560E+06   2.5890173E+00  -9.9900000E+02   1.0000000E+00
  7.8486916E+05   9.3178560E+06   2.4973021E+00  -9.9900000E+02   1.0000000E+00
  7.8561916E+05   9.3178560E+06   3.3071037E+00  -9.9900000E+02   1.0000000E+00
  7.8636916E+05   9.3178560E+06   4.1535519E+00  -9.9900000E+02   1.0000000E+00
  7.8711916E+05   9.3178560E+06   5.1535519E+00  -9.9900000E+02   1.0000000E+00
  7.8786916E+05   9.3178560E+06   5.1535519E+00  -9.9900000E+02   1.0000000E+00
  7.8861916E+05   9.3178560E+06   5.8350301E+00  -9.9900000E+02   1.0000000E+00
  7.8936916E+05   9.3178560E+06   4.3071037E+00  -9.9900000E+02   1.0000000E+00
  7.9011916E+05   9.3178560E+06   4.9402738E+00  -9.9900000E+02   1.0000000E+00
  0.0000000E+00   0.0000000E+00  -9.9900000E+02  -9.9900000E+02   1.0000000E+00
  0.0000000E+00   0.0000000E+00  -9.9900000E+02  -9.9900000E+02   1.0000000E+00
  0.0000000E+00   0.0000000E+00  -9.9900000E+02  -9.9900000E+02   1.0000000E+00
  0.0000000E+00   0.0000000E+00  -9.9900000E+02  -9.9900000E+02   1.0000000E+00
  0.0000000E+00   0.0000000E+00  -9.9900000E+02  -9.9900000E+02   1.0000000E+00
  0.0000000E+00   0.0000000E+00  -9.9900000E+02  -9.9900000E+02   1.0000000E+00
  0.0000000E+00   0.0000000E+00  -9.9900000E+02  -9.9900000E+02   1.0000000E+00
  0.0000000E+00   0.0000000E+00  -9.9900000E+02  -9.9900000E+02   1.0000000E+00
  0.0000000E+00   0.0000000E+00  -9.9900000E+02  -9.9900000E+02   1.0000000E+00
  0.0000000E+00   0.0000000E+00  -9.9900000E+02  -9.9900000E+02   1.0000000E+00
  0.0000000E+00   0.0000000E+00  -9.9900000E+02  -9.9900000E+02   1.0000000E+00
  0.0000000E+00   0.0000000E+00  -9.9900000E+02  -9.9900000E+02   1.0000000E+00
  0.0000000E+00   0.0000000E+00  -9.9900000E+02  -9.9900000E+02   1.0000000E+00
  0.0000000E+00   0.0000000E+00  -9.9900000E+02  -9.9900000E+02   1.0000000E+00
  0.0000000E+00   0.0000000E+00  -9.9900000E+02  -9.9900000E+02   1.0000000E+00
  0.0000000E+00   0.0000000E+00  -9.9900000E+02  -9.9900000E+02   1.0000000E+00
  0.0000000E+00   0.0000000E+00  -9.9900000E+02  -9.9900000E+02   1.0000000E+00
  0.0000000E+00   0.0000000E+00  -9.9900000E+02  -9.9900000E+02   1.0000000E+00
  0.0000000E+00   0.0000000E+00  -9.9900000E+02  -9.9900000E+02   1.0000000E+00
  0.0000000E+00   0.0000000E+00  -9.9900000E+02  -9.9900000E+02   1.0000000E+00
  0.0000000E+00   0.0000000E+00  -9.9900000E+02  -9.9900000E+02   1.0000000E+00
  0.0000000E+00   0.0000000E+00  -9.9900000E+02  -9.9900000E+02   1.0000000E+00
  0.0000000E+00   0.0000000E+00  -9.9900000E+02  -9.9900000E+02   1.0000000E+00
  0.0000000E+00   0.0000000E+00  -9.9900000E+02  -9.9900000E+02   1.0000000E+00
  0.0000000E+00   0.0000000E+00  -9.9900000E+02  -9.9900000E+02   1.0000000E+00
  0.0000000E+00   0.0000000E+00  -9.9900000E+02  -9.9900000E+02   1.0000000E+00
  0.0000000E+00   0.0000000E+00  -9.9900000E+02  -9.9900000E+02   1.0000000E+00
  0.0000000E+00   0.0000000E+00  -9.9900000E+02  -9.9900000E+02   1.0000000E+00
  0.0000000E+00   0.0000000E+00  -9.9900000E+02  -9.9900000E+02   1.0000000E+00
  0.0000000E+00   0.0000000E+00  -9.9900000E+02  -9.9900000E+02   1.0000000E+00
  0.0000000E+00   0.0000000E+00  -9.9900000E+02  -9.9900000E+02   1.0000000E+00
  0.0000000E+00   0.0000000E+00  -9.9900000E+02  -9.9900000E+02   1.0000000E+00
  0.0000000E+00   0.0000000E+00  -9.9900000E+02  -9.9900000E+02   1.0000000E+00
  0.0000000E+00   0.0000000E+00  -9.9900000E+02  -9.9900000E+02   1.0000000E+00
  0.0000000E+00   0.0000000E+00  -9.9900000E+02  -9.9900000E+02   1.0000000E+00
  0.0000000E+00   0.0000000E+00  -9.9900000E+02  -9.9900000E+02   1.0000000E+00
  0.0000000E+00   0.0000000E+00  -9.9900000E+02  -9.9900000E+02   1.0000000E+00
  0.0000000E+00   0.0000000E+00  -9.9900000E+02  -9.9900000E+02   1.0000000E+00
  0.0000000E+00   0.0000000E+00  -9.9900000E+02  -9.9900000E+02   1.0000000E+00
  0.0000000E+00   0.0000000E+00  -9.9900000E+02  -9.9900000E+02   1.0000000E+00
  0.0000000E+00   0.0000000E+00  -9.9900000E+02  -9.9900000E+02   1.0000000E+00
  0.0000000E+00   0.0000000E+00  -9.9900000E+02  -9.9900000E+02   1.0000000E+00
  0.0000000E+00   0.0000000E+00  -9.9900000E+02  -9.9900000E+02   1.0000000E+00
  0.0000000E+00   0.0000000E+00  -9.9900000E+02  -9.9900000E+02   1.0000000E+00
  0.0000000E+00   0.0000000E+00  -9.9900000E+02  -9.9900000E+02   1.0000000E+00
  0.0000000E+00   0.0000000E+00  -9.9900000E+02  -9.9900000E+02   1.0000000E+00
  0.0000000E+00   0.0000000E+00  -9.9900000E+02  -9.9900000E+02   1.0000000E+00
  0.0000000E+00   0.0000000E+00  -9.9900000E+02  -9.9900000E+02   1.0000000E+00
  0.0000000E+00   0.0000000E+00  -9.9900000E+02  -9.9900000E+02   1.0000000E+00
  0.0000000E+00   0.0000000E+00  -9.9900000E+02  -9.9900000E+02   1.0000000E+00
  0.0000000E+00   0.0000000E+00  -9.9900000E+02  -9.9900000E+02   1.0000000E+00
  0.0000000E+00   0.0000000E+00  -9.9900000E+02  -9.9900000E+02   1.0000000E+00
  0.0000000E+00   0.0000000E+00  -9.9900000E+02  -9.9900000E+02   1.0000000E+00
  0.0000000E+00   0.0000000E+00  -9.9900000E+02  -9.9900000E+02   1.0000000E+00
  0.0000000E+00   0.0000000E+00  -9.9900000E+02  -9.9900000E+02   1.0000000E+00
  0.0000000E+00   0.0000000E+00  -9.9900000E+02  -9.9900000E+02   1.0000000E+00
  0.0000000E+00   0.0000000E+00  -9.9900000E+02  -9.9900000E+02   1.0000000E+00
  0.0000000E+00   0.0000000E+00  -9.9900000E+02  -9.9900000E+02   1.0000000E+00
  0.0000000E+00   0.0000000E+00  -9.9900000E+02  -9.9900000E+02   1.0000000E+00
  0.0000000E+00   0.0000000E+00  -9.9900000E+02  -9.9900000E+02   1.0000000E+00
  0.0000000E+00   0.0000000E+00  -9.9900000E+02  -9.9900000E+02   1.0000000E+00
  0.0000000E+00   0.0000000E+00  -9.9900000E+02  -9.9900000E+02   1.0000000E+00
  0.0000000E+00   0.0000000E+00  -9.9900000E+02  -9.9900000E+02   1.0000000E+00
  0.0000000E+00   0.0000000E+00  -9.9900000E+02  -9.9900000E+02   1.0000000E+00
  0.0000000E+00   0.0000000E+00  -9.9900000E+02  -9.9900000E+02   1.0000000E+00
  0.0000000E+00   0.0000000E+00  -9.9900000E+02  -9.9900000E+02   1.0000000E+00
  0.0000000E+00   0.0000000E+00  -9.9900000E+02  -9.9900000E+02   1.0000000E+00
  0.0000000E+00   0.0000000E+00  -9.9900000E+02  -9.9900000E+02   1.0000000E+00
  0.0000000E+00   0.0000000E+00  -9.9900000E+02  -9.9900000E+02   1.0000000E+00
  0.0000000E+00   0.0000000E+00  -9.9900000E+02  -9.9900000E+02   1.0000000E+00
  0.0000000E+00   0.0000000E+00  -9.9900000E+02  -9.9900000E+02   1.0000000E+00
  0.0000000E+00   0.0000000E+00  -9.9900000E+02  -9.9900000E+02   1.0000000E+00
  0.0000000E+00   0.0000000E+00  -9.9900000E+02  -9.9900000E+02   1.0000000E+00
  0.0000000E+00   0.0000000E+00  -9.9900000E+02  -9.9900000E+02   1.0000000E+00
  0.0000000E+00   0.0000000E+00  -9.9900000E+02  -9.9900000E+02   1.0000000E+00
  0.0000000E+00   0.0000000E+00  -9.9900000E+02  -9.9900000E+02   1.0000000E+00
  0.0000000E+00   0.0000000E+00  -9.9900000E+02  -9.9900000E+02   1.0000000E+00
  0.0000000E+00   0.0000000E+00  -9.9900000E+02  -9.9900000E+02   1.0000000E+00
  0.0000000E+00   0.0000000E+00  -9.9900000E+02  -9.9900000E+02   1.0000000E+00
  0.0000000E+00   0.0000000E+00  -9.9900000E+02  -9.9900000E+02   1.0000000E+00
  0.0000000E+00   0.0000000E+00  -9.9900000E+02  -9.9900000E+02   1.0000000E+00
  0.0000000E+00   0.0000000E+00  -9.9900000E+02  -9.9900000E+02   1.0000000E+00
  0.0000000E+00   0.0000000E+00  -9.9900000E+02  -9.9900000E+02   1.0000000E+00
  0.0000000E+00   0.0000000E+00  -9.9900000E+02  -9.9900000E+02   1.0000000E+00
  0.0000000E+00   0.0000000E+00  -9.9900000E+02  -9.9900000E+02   1.0000000E+00
  0.0000000E+00   0.0000000E+00  -9.9900000E+02  -9.9900000E+02   1.0000000E+00
  0.0000000E+00   0.0000000E+00  -9.9900000E+02  -9.9900000E+02   1.0000000E+00
  0.0000000E+00   0.0000000E+00  -9.9900000E+02  -9.9900000E+02   1.0000000E+00
  0.0000000E+00   0.0000000E+00  -9.9900000E+02  -9.9900000E+02   1.0000000E+00
  0.0000000E+00   0.0000000E+00  -9.9900000E+02  -9.9900000E+02   1.0000000E+00
  0.0000000E+00   0.0000000E+00  -9.9900000E+02  -9.9900000E+02   1.0000000E+00
  0.0000000E+00   0.0000000E+00  -9.9900000E+02  -9.9900000E+02   1.0000000E+00
  0.0000000E+00   0.0000000E+00  -9.9900000E+02  -9.9900000E+02   1.0000000E+00
  0.0000000E+00   0.0000000E+00  -9.9900000E+02  -9.9900000E+02   1.0000000E+00
  0.0000000E+00   0.0000000E+00  -9.9900000E+02  -9.9900000E+02   1.0000000E+00
  0.0000000E+00   0.0000000E+00  -9.9900000E+02  -9.9900000E+02   1.0000000E+00
  0.0000000E+00   0.0000000E+00  -9.9900000E+02  -9.9900000E+02   1.0000000E+00
  0.0000000E+00   0.0000000E+00  -9.9900000E+02  -9.9900000E+02   1.0000000E+00
  0.0000000E+00   0.0000000E+00  -9.9900000E+02  -9.9900000E+02   1.0000000E+00
  0.0000000E+00   0.0000000E+00  -9.9900000E+02  -9.9900000E+02   1.0000000E+00
  0.0000000E+00   0.0000000E+00  -9.9900000E+02  -9.9900000E+02   1.0000000E+00
  0.0000000E+00   0.0000000E+00  -9.9900000E+02  -9.9900000E+02   1.0000000E+00
  0.0000000E+00   0.0000000E+00  -9.9900000E+02  -9.9900000E+02   1.0000000E+00
  0.0000000E+00   0.0000000E+00  -9.9900000E+02  -9.9900000E+02   1.0000000E+00
  0.0000000E+00   0.0000000E+00  -9.9900000E+02  -9.9900000E+02   1.0000000E+00
  0.0000000E+00   0.0000000E+00  -9.9900000E+02  -9.9900000E+02   1.0000000E+00
  0.0000000E+00   0.0000000E+00  -9.9900000E+02  -9.9900000E+02   1.0000000E+00
  0.0000000E+00   0.0000000E+00  -9.9900000E+02  -9.9900000E+02   1.0000000E+00
  0.0000000E+00   0.0000000E+00  -9.9900000E+02  -9.9900000E+02   1.0000000E+00
  0.0000000E+00   0.0000000E+00  -9.9900000E+02  -9.9900000E+02   1.0000000E+00
  0.0000000E+00   0.0000000E+00  -9.9900000E+02  -9.9900000E+02   1.0000000E+00
  0.0000000E+00   0.0000000E+00  -9.9900000E+02  -9.9900000E+02   1.0000000E+00
  0.0000000E+00   0.0000000E+00  -9.9900000E+02  -9.9900000E+02   1.0000000E+00
  0.0000000E+00   0.0000000E+00  -9.9900000E+02  -9.9900000E+02   1.0000000E+00
  0.0000000E+00   0.0000000E+00  -9.9900000E+02  -9.9900000E+02   1.0000000E+00
  0.0000000E+00   0.0000000E+00  -9.9900000E+02  -9.9900000E+02   1.0000000E+00
  0.0000000E+00   0.0000000E+00  -9.9900000E+02  -9.9900000E+02   1.0000000E+00
  0.0000000E+00   0.0000000E+00  -9.9900000E+02  -9.9900000E+02   1.0000000E+00
  0.0000000E+00   0.0000000E+00  -9.9900000E+02  -9.9900000E+02   1.0000000E+00
  0.0000000E+00   0.0000000E+00  -9.9900000E+02  -9.9900000E+02   1.0000000E+00
  0.0000000E+00   0.0000000E+00  -9.9900000E+02  -9.9900000E+02   1.0000000E+00
  0.0000000E+00   0.0000000E+00  -9.9900000E+02  -9.9900000E+02   1.0000000E+00
  0.0000000E+00   0.0000000E+00  -9.9900000E+02  -9.9900000E+02   1.0000000E+00
  0.0000000E+00   0.0000000E+00  -9.9900000E+02  -9.9900000E+02   1.0000000E+00
  0.0000000E+00   0.0000000E+00  -9.9900000E+02  -9.9900000E+02   1.0000000E+00
  0.0000000E+00   0.0000000E+00  -9.9900000E+02  -9.9900000E+02   1.0000000E+00
  0.0000000E+00   0.0000000E+00  -9.9900000E+02  -9.9900000E+02   1.0000000E+00
  0.0000000E+00   0.0000000E+00  -9.9900000E+02  -9.9900000E+02   1.0000000E+00
  0.0000000E+00   0.0000000E+00  -9.9900000E+02  -9.9900000E+02   1.0000000E+00
  0.0000000E+00   0.0000000E+00  -9.9900000E+02  -9.9900000E+02   1.0000000E+00
  0.0000000E+00   0.0000000E+00  -9.9900000E+02  -9.9900000E+02   1.0000000E+00
  0.0000000E+00   0.0000000E+00  -9.9900000E+02  -9.9900000E+02   1.0000000E+00
  0.0000000E+00   0.0000000E+00  -9.9900000E+02  -9.9900000E+02   1.0000000E+00
  0.0000000E+00   0.0000000E+00  -9.9900000E+02  -9.9900000E+02   1.0000000E+00
  0.0000000E+00   0.0000000E+00  -9.9900000E+02  -9.9900000E+02   1.0000000E+00
  0.0000000E+00   0.0000000E+00  -9.9900000E+02  -9.9900000E+02   1.0000000E+00
  0.0000000E+00   0.0000000E+00  -9.9900000E+02  -9.9900000E+02   1.0000000E+00
  0.0000000E+00   0.0000000E+00  -9.9900000E+02  -9.9900000E+02   1.0000000E+00
  0.0000000E+00   0.0000000E+00  -9.9900000E+02  -9.9900000E+02   1.0000000E+00
  0.0000000E+00   0.0000000E+00  -9.9900000E+02  -9.9900000E+02   1.0000000E+00
  0.0000000E+00   0.0000000E+00  -9.9900000E+02  -9.9900000E+02   1.0000000E+00
  0.0000000E+00   0.0000000E+00  -9.9900000E+02  -9.9900000E+02   1.0000000E+00
  0.0000000E+00   0.0000000E+00  -9.9900000E+02  -9.9900000E+02   1.0000000E+00
  0.0000000E+00   0.0000000E+00  -9.9900000E+02  -9.9900000E+02   1.0000000E+00
  0.0000000E+00   0.0000000E+00  -9.9900000E+02  -9.9900000E+02   1.0000000E+00
  0.0000000E+00   0.0000000E+00  -9.9900000E+02  -9.9900000E+02   1.0000000E+00
  0.0000000E+00   0.0000000E+00  -9.9900000E+02  -9.9900000E+02   1.0000000E+00
  0.0000000E+00   0.0000000E+00  -9.9900000E+02  -9.9900000E+02   1.0000000E+00
  0.0000000E+00   0.0000000E+00  -9.9900000E+02  -9.9900000E+02   1.0000000E+00
  0.0000000E+00   0.0000000E+00  -9.9900000E+02  -9.9900000E+02   1.0000000E+00
  0.0000000E+00   0.0000000E+00  -9.9900000E+02  -9.9900000E+02   1.0000000E+00
  0.0000000E+00   0.0000000E+00  -9.9900000E+02  -9.9900000E+02   1.0000000E+00
  0.0000000E+00   0.0000000E+00  -9.9900000E+02  -9.9900000E+02   1.0000000E+00
  0.0000000E+00   0.0000000E+00  -9.9900000E+02  -9.9900000E+02   1.0000000E+00
  0.0000000E+00   0.0000000E+00  -9.9900000E+02  -9.9900000E+02   1.0000000E+00
  0.0000000E+00   0.0000000E+00  -9.9900000E+02  -9.9900000E+02   1.0000000E+00
  0.0000000E+00   0.0000000E+00  -9.9900000E+02  -9.9900000E+02   1.0000000E+00
  0.0000000E+00   0.0000000E+00  -9.9900000E+02  -9.9900000E+02   1.0000000E+00
  0.0000000E+00   0.0000000E+00  -9.9900000E+02  -9.9900000E+02   1.0000000E+00
  0.0000000E+00   0.0000000E+00  -9.9900000E+02  -9.9900000E+02   1.0000000E+00
  0.0000000E+00   0.0000000E+00  -9.9900000E+02  -9.9900000E+02   1.0000000E+00
  0.0000000E+00   0.0000000E+00  -9.9900000E+02  -9.9900000E+02   1.0000000E+00
  0.0000000E+00   0.0000000E+00  -9.9900000E+02  -9.9900000E+02   1.0000000E+00
  0.0000000E+00   0.0000000E+00  -9.9900000E+02  -9.9900000E+02   1.0000000E+00
  0.0000000E+00   0.0000000E+00  -9.9900000E+02  -9.9900000E+02   1.0000000E+00
  0.0000000E+00   0.0000000E+00  -9.9900000E+02  -9.9900000E+02   1.0000000E+00
  0.0000000E+00   0.0000000E+00  -9.9900000E+02  -9.9900000E+02   1.0000000E+00
  0.0000000E+00   0.0000000E+00  -9.9900000E+02  -9.9900000E+02   1.0000000E+00
  0.0000000E+00   0.0000000E+00  -9.9900000E+02  -9.9900000E+02   1.0000000E+00
  0.0000000E+00   0.0000000E+00  -9.9900000E+02  -9.9900000E+02   1.0000000E+00
  0.0000000E+00   0.0000000E+00  -9.9900000E+02  -9.9900000E+02   1.0000000E+00
  0.0000000E+00   0.0000000E+00  -9.9900000E+02  -9.9900000E+02   1.0000000E+00
  0.0000000E+00   0.0000000E+00  -9.9900000E+02  -9.9900000E+02   1.0000000E+00
  0.0000000E+00   0.0000000E+00  -9.9900000E+02  -9.9900000E+02   1.0000000E+00
  0.0000000E+00   0.0000000E+00  -9.9900000E+02  -9.9900000E+02   1.0000000E+00
  0.0000000E+00   0.0000000E+00  -9.9900000E+02  -9.9900000E+02   1.0000000E+00
  0.0000000E+00   0.0000000E+00  -9.9900000E+02  -9.9900000E+02   1.0000000E+00
  0.0000000E+00   0.0000000E+00  -9.9900000E+02  -9.9900000E+02   1.0000000E+00
  0.0000000E+00   0.0000000E+00  -9.9900000E+02  -9.9900000E+02   1.0000000E+00
  0.0000000E+00   0.0000000E+00  -9.9900000E+02  -9.9900000E+02   1.0000000E+00
  0.0000000E+00   0.0000000E+00  -9.9900000E+02  -9.9900000E+02   1.0000000E+00
  7.7586916E+05   9.3186060E+06   3.8924084E+00  -9.9900000E+02   1.0000000E+00
  7.7661916E+05   9.3186060E+06   4.6455407E+00  -9.9900000E+02   1.0000000E+00
  7.7736916E+05   9.3186060E+06   5.0000000E+00  -9.9900000E+02   1.0000000E+00
  7.7811916E+05   9.3186060E+06   4.4407825E+00  -9.9900000E+02   1.0000000E+00
  7.7886916E+05   9.3186060E+06   3.8151187E+00  -9.9900000E+02   1.0000000E+00
  7.7961916E+05   9.3186060E+06   3.2207825E+00  -9.9900000E+02   1.0000000E+00
  7.8036916E+05   9.3186060E+06   4.2207825E+00  -9.9900000E+02   1.0000000E+00
  7.8111916E+05   9.3186060E+06   5.0000000E+00  -9.9900000E+02   1.0000000E+00
  7.8186916E+05   9.3186060E+06   4.2207825E+00  -9.9900000E+02   1.0000000E+00
  7.8261916E+05   9.3186060E+06   4.7792175E+00  -9.9900000E+02   1.0000000E+00
  7.8336916E+05   9.3186060E+06   4.7792175E+00  -9.9900000E+02   1.0000000E+00
  7.8411916E+05   9.3186060E+06   5.5584350E+00  -9.9900000E+02   1.0000000E+00
  7.8486916E+05   9.3186060E+06   5.7792175E+00  -9.9900000E+02   1.0000000E+00
  7.8561916E+05   9.3186060E+06   6.5584350E+00  -9.9900000E+02   1.0000000E+00
  7.8636916E+05   9.3186060E+06   6.7792175E+00  -9.9900000E+02   1.0000000E+00
  7.8711916E+05   9.3186060E+06   7.5584350E+00  -9.9900000E+02   1.0000000E+00
  7.8786916E+05   9.3186060E+06   7.0863618E+00  -9.9900000E+02   1.0000000E+00
  7.8861916E+05   9.3186060E+06   6.7792175E+00  -9.9900000E+02   1.0000000E+00
  7.8936916E+05   9.3186060E+06   5.2207825E+00  -9.9900000E+02   1.0000000E+00
  7.9011916E+05   9.3186060E+06   5.5362728E+00  -9.9900000E+02   1.0000000E+00
  0.0000000E+00   0.0000000E+00  -9.9900000E+02  -9.9900000E+02   1.0000000E+00
  0.0000000E+00   0.0000000E+00  -9.9900000E+02  -9.9900000E+02   1.0000000E+00
  0.0000000E+00   0.0000000E+00  -9.9900000E+02  -9.9900000E+02   1.0000000E+00
  0.0000000E+00   0.0000000E+00  -9.9900000E+02  -9.9900000E+02   1.0000000E+00
  0.0000000E+00   0.0000000E+00  -9.9900000E+02  -9.9900000E+02   1.0000000E+00
  0.0000000E+00   0.0000000E+00  -9.9900000E+02  -9.9900000E+02   1.0000000E+00
  0.0000000E+00   0.0000000E+00  -9.9900000E+02  -9.9900000E+02   1.0000000E+00
  0.0000000E+00   0.0000000E+00  -9.9900000E+02  -9.9900000E+02   1.0000000E+00
  0.0000000E+00   0.0000000E+00  -9.9900000E+02  -9.9900000E+02   1.0000000E+00
  0.0000000E+00   0.0000000E+00  -9.9900000E+02  -9.9900000E+02   1.0000000E+00
  0.0000000E+00   0.0000000E+00  -9.9900000E+02  -9.9900000E+02   1.0000000E+00
  0.0000000E+00   0.0000000E+00  -9.9900000E+02  -9.9900000E+02   1.0000000E+00
  0.0000000E+00   0.0000000E+00  -9.9900000E+02  -9.9900000E+02   1.0000000E+00
  0.0000000E+00   0.0000000E+00  -9.9900000E+02  -9.9900000E+02   1.0000000E+00
  0.0000000E+00   0.0000000E+00  -9.9900000E+02  -9.9900000E+02   1.0000000E+00
  0.0000000E+00   0.0000000E+00  -9.9900000E+02  -9.9900000E+02   1.0000000E+00
  0.0000000E+00   0.0000000E+00  -9.9900000E+02  -9.9900000E+02   1.0000000E+00
  0.0000000E+00   0.0000000E+00  -9.9900000E+02  -9.9900000E+02   1.0000000E+00
  0.0000000E+00   0.0000000E+00  -9.9900000E+02  -9.9900000E+02   1.0000000E+00
  0.0000000E+00   0.0000000E+00  -9.9900000E+02  -9.9900000E+02   1.0000000E+00
  0.0000000E+00   0.0000000E+00  -9.9900000E+02  -9.9900000E+02   1.0000000E+00
  0.0000000E+00   0.0000000E+00  -9.9900000E+02  -9.9900000E+02   1.0000000E+00
  0.0000000E+00   0.0000000E+00  -9.9900000E+02  -9.9900000E+02   1.0000000E+00
  0.0000000E+00   0.0000000E+00  -9.9900000E+02  -9.9900000E+02   1.0000000E+00
  0.0000000E+00   0.0000000E+00  -9.9900000E+02  -9.9900000E+02   1.0000000E+00
  0.0000000E+00   0.0000000E+00  -9.9900000E+02  -9.9900000E+02   1.0000000E+00
  0.0000000E+00   0.0000000E+00  -9.9900000E+02  -9.9900000E+02   1.0000000E+00
  0.0000000E+00   0.0000000E+00  -9.9900000E+02  -9.9900000E+02   1.0000000E+00
  0.0000000E+00   0.0000000E+00  -9.9900000E+02  -9.9900000E+02   1.0000000E+00
  0.0000000E+00   0.0000000E+00  -9.9900000E+02  -9.9900000E+02   1.0000000E+00
  0.0000000E+00   0.0000000E+00  -9.9900000E+02  -9.9900000E+02   1.0000000E+00
  0.0000000E+00   0.0000000E+00  -9.9900000E+02  -9.9900000E+02   1.0000000E+00
  0.0000000E+00   0.0000000E+00  -9.9900000E+02  -9.9900000E+02   1.0000000E+00
  0.0000000E+00   0.0000000E+00  -9.9900000E+02  -9.9900000E+02   1.0000000E+00
  0.0000000E+00   0.0000000E+00  -9.9900000E+02  -9.9900000E+02   1.0000000E+00
  0.0000000E+00   0.0000000E+00  -9.9900000E+02  -9.9900000E+02   1.0000000E+00
  0.0000000E+00   0.0000000E+00  -9.9900000E+02  -9.9900000E+02   1.0000000E+00
  0.0000000E+00   0.0000000E+00  -9.9900000E+02  -9.9900000E+02   1.0000000E+00
  0.0000000E+00   0.0000000E+00  -9.9900000E+02  -9.9900000E+02   1.0000000E+00
  0.0000000E+00   0.0000000E+00  -9.9900000E+02  -9.9900000E+02   1.0000000E+00
  0.0000000E+00   0.0000000E+00  -9.9900000E+02  -9.9900000E+02   1.0000000E+00
  0.0000000E+00   0.0000000E+00  -9.9900000E+02  -9.9900000E+02   1.0000000E+00
  0.0000000E+00   0.0000000E+00  -9.9900000E+02  -9.9900000E+02   1.0000000E+00
  0.0000000E+00   0.0000000E+00  -9.9900000E+02  -9.9900000E+02   1.0000000E+00
  0.0000000E+00   0.0000000E+00  -9.9900000E+02  -9.9900000E+02   1.0000000E+00
  0.0000000E+00   0.0000000E+00  -9.9900000E+02  -9.9900000E+02   1.0000000E+00
  0.0000000E+00   0.0000000E+00  -9.9900000E+02  -9.9900000E+02   1.0000000E+00
  0.0000000E+00   0.0000000E+00  -9.9900000E+02  -9.9900000E+02   1.0000000E+00
  0.0000000E+00   0.0000000E+00  -9.9900000E+02  -9.9900000E+02   1.0000000E+00
  0.0000000E+00   0.0000000E+00  -9.9900000E+02  -9.9900000E+02   1.0000000E+00
  0.0000000E+00   0.0000000E+00  -9.9900000E+02  -9.9900000E+02   1.0000000E+00
  0.0000000E+00   0.0000000E+00  -9.9900000E+02  -9.9900000E+02   1.0000000E+00
  0.0000000E+00   0.0000000E+00  -9.9900000E+02  -9.9900000E+02   1.0000000E+00
  0.0000000E+00   0.0000000E+00  -9.9900000E+02  -9.9900000E+02   1.0000000E+00
  0.0000000E+00   0.0000000E+00  -9.9900000E+02  -9.9900000E+02   1.0000000E+00
  0.0000000E+00   0.0000000E+00  -9.9900000E+02  -9.9900000E+02   1.0000000E+00
  0.0000000E+00   0.0000000E+00  -9.9900000E+02  -9.9900000E+02   1.0000000E+00
  0.0000000E+00   0.0000000E+00  -9.9900000E+02  -9.9900000E+02   1.0000000E+00
  0.0000000E+00   0.0000000E+00  -9.9900000E+02  -9.9900000E+02   1.0000000E+00
  0.0000000E+00   0.0000000E+00  -9.9900000E+02  -9.9900000E+02   1.0000000E+00
  0.0000000E+00   0.0000000E+00  -9.9900000E+02  -9.9900000E+02   1.0000000E+00
  0.0000000E+00   0.0000000E+00  -9.9900000E+02  -9.9900000E+02   1.0000000E+00
  0.0000000E+00   0.0000000E+00  -9.9900000E+02  -9.9900000E+02   1.0000000E+00
  0.0000000E+00   0.0000000E+00  -9.9900000E+02  -9.9900000E+02   1.0000000E+00
  0.0000000E+00   0.0000000E+00  -9.9900000E+02  -9.9900000E+02   1.0000000E+00
  0.0000000E+00   0.0000000E+00  -9.9900000E+02  -9.9900000E+02   1.0000000E+00
  0.0000000E+00   0.0000000E+00  -9.9900000E+02  -9.9900000E+02   1.0000000E+00
  0.0000000E+00   0.0000000E+00  -9.9900000E+02  -9.9900000E+02   1.0000000E+00
  0.0000000E+00   0.0000000E+00  -9.9900000E+02  -9.9900000E+02   1.0000000E+00
  0.0000000E+00   0.0000000E+00  -9.9900000E+02  -9.9900000E+02   1.0000000E+00
  0.0000000E+00   0.0000000E+00  -9.9900000E+02  -9.9900000E+02   1.0000000E+00
  0.0000000E+00   0.0000000E+00  -9.9900000E+02  -9.9900000E+02   1.0000000E+00
  0.0000000E+00   0.0000000E+00  -9.9900000E+02  -9.9900000E+02   1.0000000E+00
  0.0000000E+00   0.0000000E+00  -9.9900000E+02  -9.9900000E+02   1.0000000E+00
  0.0000000E+00   0.0000000E+00  -9.9900000E+02  -9.9900000E+02   1.0000000E+00
  0.0000000E+00   0.0000000E+00  -9.9900000E+02  -9.9900000E+02   1.0000000E+00
  0.0000000E+00   0.0000000E+00  -9.9900000E+02  -9.9900000E+02   1.0000000E+00
  0.0000000E+00   0.0000000E+00  -9.9900000E+02  -9.9900000E+02   1.0000000E+00
  0.0000000E+00   0.0000000E+00  -9.9900000E+02  -9.9900000E+02   1.0000000E+00
  0.0000000E+00   0.0000000E+00  -9.9900000E+02  -9.9900000E+02   1.0000000E+00
  0.0000000E+00   0.0000000E+00  -9.9900000E+02  -9.9900000E+02   1.0000000E+00
  0.0000000E+00   0.0000000E+00  -9.9900000E+02  -9.9900000E+02   1.0000000E+00
  0.0000000E+00   0.0000000E+00  -9.9900000E+02  -9.9900000E+02   1.0000000E+00
  0.0000000E+00   0.0000000E+00  -9.9900000E+02  -9.9900000E+02   1.0000000E+00
  0.0000000E+00   0.0000000E+00  -9.9900000E+02  -9.9900000E+02   1.0000000E+00
  0.0000000E+00   0.0000000E+00  -9.9900000E+02  -9.9900000E+02   1.0000000E+00
  0.0000000E+00   0.0000000E+00  -9.9900000E+02  -9.9900000E+02   1.0000000E+00
  0.0000000E+00   0.0000000E+00  -9.9900000E+02  -9.9900000E+02   1.0000000E+00
  0.0000000E+00   0.0000000E+00  -9.9900000E+02  -9.9900000E+02   1.0000000E+00
  0.0000000E+00   0.0000000E+00  -9.9900000E+02  -9.9900000E+02   1.0000000E+00
  0.0000000E+00   0.0000000E+00  -9.9900000E+02  -9.9900000E+02   1.0000000E+00
  0.0000000E+00   0.0000000E+00  -9.9900000E+02  -9.9900000E+02   1.0000000E+00
  0.0000000E+00   0.0000000E+00  -9.9900000E+02  -9.9900000E+02   1.0000000E+00
  0.0000000E+00   0.0000000E+00  -9.9900000E+02  -9.9900000E+02   1.0000000E+00
  0.0000000E+00   0.0000000E+00  -9.9900000E+02  -9.9900000E+02   1.0000000E+00
  0.0000000E+00   0.0000000E+00  -9.9900000E+02  -9.9900000E+02   1.0000000E+00
  0.0000000E+00   0.0000000E+00  -9.9900000E+02  -9.9900000E+02   1.0000000E+00
  0.0000000E+00   0.0000000E+00  -9.9900000E+02  -9.9900000E+02   1.0000000E+00
  0.0000000E+00   0.0000000E+00  -9.9900000E+02  -9.9900000E+02   1.0000000E+00
  0.0000000E+00   0.0000000E+00  -9.9900000E+02  -9.9900000E+02   1.0000000E+00
  0.0000000E+00   0.0000000E+00  -9.9900000E+02  -9.9900000E+02   1.0000000E+00
  0.0000000E+00   0.0000000E+00  -9.9900000E+02  -9.9900000E+02   1.0000000E+00
  0.0000000E+00   0.0000000E+00  -9.9900000E+02  -9.9900000E+02   1.0000000E+00
  0.0000000E+00   0.0000000E+00  -9.9900000E+02  -9.9900000E+02   1.0000000E+00
  0.0000000E+00   0.0000000E+00  -9.9900000E+02  -9.9900000E+02   1.0000000E+00
  0.0000000E+00   0.0000000E+00  -9.9900000E+02  -9.9900000E+02   1.0000000E+00
  0.0000000E+00   0.0000000E+00  -9.9900000E+02  -9.9900000E+02   1.0000000E+00
  0.0000000E+00   0.0000000E+00  -9.9900000E+02  -9.9900000E+02   1.0000000E+00
  0.0000000E+00   0.0000000E+00  -9.9900000E+02  -9.9900000E+02   1.0000000E+00
  0.0000000E+00   0.0000000E+00  -9.9900000E+02  -9.9900000E+02   1.0000000E+00
  0.0000000E+00   0.0000000E+00  -9.9900000E+02  -9.9900000E+02   1.0000000E+00
  0.0000000E+00   0.0000000E+00  -9.9900000E+02  -9.9900000E+02   1.0000000E+00
  0.0000000E+00   0.0000000E+00  -9.9900000E+02  -9.9900000E+02   1.0000000E+00
  0.0000000E+00   0.0000000E+00  -9.9900000E+02  -9.9900000E+02   1.0000000E+00
  0.0000000E+00   0.0000000E+00  -9.9900000E+02  -9.9900000E+02   1.0000000E+00
  0.0000000E+00   0.0000000E+00  -9.9900000E+02  -9.9900000E+02   1.0000000E+00
  0.0000000E+00   0.0000000E+00  -9.9900000E+02  -9.9900000E+02   1.0000000E+00
  0.0000000E+00   0.0000000E+00  -9.9900000E+02  -9.9900000E+02   1.0000000E+00
  0.0000000E+00   0.0000000E+00  -9.9900000E+02  -9.9900000E+02   1.0000000E+00
  0.0000000E+00   0.0000000E+00  -9.9900000E+02  -9.9900000E+02   1.0000000E+00
  0.0000000E+00   0.0000000E+00  -9.9900000E+02  -9.9900000E+02   1.0000000E+00
  0.0000000E+00   0.0000000E+00  -9.9900000E+02  -9.9900000E+02   1.0000000E+00
  0.0000000E+00   0.0000000E+00  -9.9900000E+02  -9.9900000E+02   1.0000000E+00
  0.0000000E+00   0.0000000E+00  -9.9900000E+02  -9.9900000E+02   1.0000000E+00
  0.0000000E+00   0.0000000E+00  -9.9900000E+02  -9.9900000E+02   1.0000000E+00
  0.0000000E+00   0.0000000E+00  -9.9900000E+02  -9.9900000E+02   1.0000000E+00
  0.0000000E+00   0.0000000E+00  -9.9900000E+02  -9.9900000E+02   1.0000000E+00
  0.0000000E+00   0.0000000E+00  -9.9900000E+02  -9.9900000E+02   1.0000000E+00
  0.0000000E+00   0.0000000E+00  -9.9900000E+02  -9.9900000E+02   1.0000000E+00
  0.0000000E+00   0.0000000E+00  -9.9900000E+02  -9.9900000E+02   1.0000000E+00
  0.0000000E+00   0.0000000E+00  -9.9900000E+02  -9.9900000E+02   1.0000000E+00
  0.0000000E+00   0.0000000E+00  -9.9900000E+02  -9.9900000E+02   1.0000000E+00
  0.0000000E+00   0.0000000E+00  -9.9900000E+02  -9.9900000E+02   1.0000000E+00
  0.0000000E+00   0.0000000E+00  -9.9900000E+02  -9.9900000E+02   1.0000000E+00
  0.0000000E+00   0.0000000E+00  -9.9900000E+02  -9.9900000E+02   1.0000000E+00
  0.0000000E+00   0.0000000E+00  -9.9900000E+02  -9.9900000E+02   1.0000000E+00
  0.0000000E+00   0.0000000E+00  -9.9900000E+02  -9.9900000E+02   1.0000000E+00
  0.0000000E+00   0.0000000E+00  -9.9900000E+02  -9.9900000E+02   1.0000000E+00
  0.0000000E+00   0.0000000E+00  -9.9900000E+02  -9.9900000E+02   1.0000000E+00
  0.0000000E+00   0.0000000E+00  -9.9900000E+02  -9.9900000E+02   1.0000000E+00
  0.0000000E+00   0.0000000E+00  -9.9900000E+02  -9.9900000E+02   1.0000000E+00
  0.0000000E+00   0.0000000E+00  -9.9900000E+02  -9.9900000E+02   1.0000000E+00
  0.0000000E+00   0.0000000E+00  -9.9900000E+02  -9.9900000E+02   1.0000000E+00
  0.0000000E+00   0.0000000E+00  -9.9900000E+02  -9.9900000E+02   1.0000000E+00
  0.0000000E+00   0.0000000E+00  -9.9900000E+02  -9.9900000E+02   1.0000000E+00
  0.0000000E+00   0.0000000E+00  -9.9900000E+02  -9.9900000E+02   1.0000000E+00
  0.0000000E+00   0.0000000E+00  -9.9900000E+02  -9.9900000E+02   1.0000000E+00
  0.0000000E+00   0.0000000E+00  -9.9900000E+02  -9.9900000E+02   1.0000000E+00
  0.0000000E+00   0.0000000E+00  -9.9900000E+02  -9.9900000E+02   1.0000000E+00
  0.0000000E+00   0.0000000E+00  -9.9900000E+02  -9.9900000E+02   1.0000000E+00
  0.0000000E+00   0.0000000E+00  -9.9900000E+02  -9.9900000E+02   1.0000000E+00
  0.0000000E+00   0.0000000E+00  -9.9900000E+02  -9.9900000E+02   1.0000000E+00
  0.0000000E+00   0.0000000E+00  -9.9900000E+02  -9.9900000E+02   1.0000000E+00
  0.0000000E+00   0.0000000E+00  -9.9900000E+02  -9.9900000E+02   1.0000000E+00
  0.0000000E+00   0.0000000E+00  -9.9900000E+02  -9.9900000E+02   1.0000000E+00
  0.0000000E+00   0.0000000E+00  -9.9900000E+02  -9.9900000E+02   1.0000000E+00
  0.0000000E+00   0.0000000E+00  -9.9900000E+02  -9.9900000E+02   1.0000000E+00
  0.0000000E+00   0.0000000E+00  -9.9900000E+02  -9.9900000E+02   1.0000000E+00
  0.0000000E+00   0.0000000E+00  -9.9900000E+02  -9.9900000E+02   1.0000000E+00
  0.0000000E+00   0.0000000E+00  -9.9900000E+02  -9.9900000E+02   1.0000000E+00
  0.0000000E+00   0.0000000E+00  -9.9900000E+02  -9.9900000E+02   1.0000000E+00
  0.0000000E+00   0.0000000E+00  -9.9900000E+02  -9.9900000E+02   1.0000000E+00
  0.0000000E+00   0.0000000E+00  -9.9900000E+02  -9.9900000E+02   1.0000000E+00
  0.0000000E+00   0.0000000E+00  -9.9900000E+02  -9.9900000E+02   1.0000000E+00
  0.0000000E+00   0.0000000E+00  -9.9900000E+02  -9.9900000E+02   1.0000000E+00
  0.0000000E+00   0.0000000E+00  -9.9900000E+02  -9.9900000E+02   1.0000000E+00
  0.0000000E+00   0.0000000E+00  -9.9900000E+02  -9.9900000E+02   1.0000000E+00
  0.0000000E+00   0.0000000E+00  -9.9900000E+02  -9.9900000E+02   1.0000000E+00
  0.0000000E+00   0.0000000E+00  -9.9900000E+02  -9.9900000E+02   1.0000000E+00
  0.0000000E+00   0.0000000E+00  -9.9900000E+02  -9.9900000E+02   1.0000000E+00
  0.0000000E+00   0.0000000E+00  -9.9900000E+02  -9.9900000E+02   1.0000000E+00
  0.0000000E+00   0.0000000E+00  -9.9900000E+02  -9.9900000E+02   1.0000000E+00
  0.0000000E+00   0.0000000E+00  -9.9900000E+02  -9.9900000E+02   1.0000000E+00
  0.0000000E+00   0.0000000E+00  -9.9900000E+02  -9.9900000E+02   1.0000000E+00
  0.0000000E+00   0.0000000E+00  -9.9900000E+02  -9.9900000E+02   1.0000000E+00
  0.0000000E+00   0.0000000E+00  -9.9900000E+02  -9.9900000E+02   1.0000000E+00
  0.0000000E+00   0.0000000E+00  -9.9900000E+02  -9.9900000E+02   1.0000000E+00
  0.0000000E+00   0.0000000E+00  -9.9900000E+02  -9.9900000E+02   1.0000000E+00
  0.0000000E+00   0.0000000E+00  -9.9900000E+02  -9.9900000E+02   1.0000000E+00
  0.0000000E+00   0.0000000E+00  -9.9900000E+02  -9.9900000E+02   1.0000000E+00
  7.7511916E+05   9.3193560E+06   2.6516788E+00  -9.9900000E+02   1.0000000E+00
  7.7586916E+05   9.3193560E+06   3.2773426E+00  -9.9900000E+02   1.0000000E+00
  7.7661916E+05   9.3193560E+06   4.3078877E+00  -9.9900000E+02   1.0000000E+00
  7.7736916E+05   9.3193560E+06   5.3384349E+00  -9.9900000E+02   1.0000000E+00
  7.7811916E+05   9.3193560E+06   4.4407825E+00  -9.9900000E+02   1.0000000E+00
  7.7886916E+05   9.3193560E+06   3.8151187E+00  -9.9900000E+02   1.0000000E+00
  7.7961916E+05   9.3193560E+06   2.7845718E+00  -9.9900000E+02   1.0000000E+00
  7.8036916E+05   9.3193560E+06   3.0000000E+00  -9.9900000E+02   1.0000000E+00
  7.8111916E+05   9.3193560E+06   3.7188688E+00  -9.9900000E+02   1.0000000E+00
  7.8186916E+05   9.3193560E+06   5.3750818E+00  -9.9900000E+02   1.0000000E+00
  7.8261916E+05   9.3193560E+06   7.4361721E+00  -9.9900000E+02   1.0000000E+00
  7.8336916E+05   9.3193560E+06   8.8097627E+00  -9.9900000E+02   1.0000000E+00
  7.8411916E+05   9.3193560E+06   8.7791785E+00  -9.9900000E+02   1.0000000E+00
  7.8486916E+05   9.3193560E+06   8.8097627E+00  -9.9900000E+02   1.0000000E+00
  7.8561916E+05   9.3193560E+06   8.4048813E+00  -9.9900000E+02   1.0000000E+00
  7.8636916E+05   9.3193560E+06   8.4048813E+00  -9.9900000E+02   1.0000000E+00
  7.8711916E+05   9.3193560E+06   9.4048813E+00  -9.9900000E+02   1.0000000E+00
  7.8786916E+05   9.3193560E+06   9.4048813E+00  -9.9900000E+02   1.0000000E+00
  7.8861916E+05   9.3193560E+06   8.0863596E+00  -9.9900000E+02   1.0000000E+00
  7.8936916E+05   9.3193560E+06   6.4606958E+00  -9.9900000E+02   1.0000000E+00
  7.9011916E+05   9.3193560E+06   6.6610846E+00  -9.9900000E+02   1.0000000E+00
  0.0000000E+00   0.0000000E+00  -9.9900000E+02  -9.9900000E+02   1.0000000E+00
  0.0000000E+00   0.0000000E+00  -9.9900000E+02  -9.9900000E+02   1.0000000E+00
  0.0000000E+00   0.0000000E+00  -9.9900000E+02  -9.9900000E+02   1.0000000E+00
  0.0000000E+00   0.0000000E+00  -9.9900000E+02  -9.9900000E+02   1.0000000E+00
  0.0000000E+00   0.0000000E+00  -9.9900000E+02  -9.9900000E+02   1.0000000E+00
  0.0000000E+00   0.0000000E+00  -9.9900000E+02  -9.9900000E+02   1.0000000E+00
  0.0000000E+00   0.0000000E+00  -9.9900000E+02  -9.9900000E+02   1.0000000E+00
  0.0000000E+00   0.0000000E+00  -9.9900000E+02  -9.9900000E+02   1.0000000E+00
  0.0000000E+00   0.0000000E+00  -9.9900000E+02  -9.9900000E+02   1.0000000E+00
  0.0000000E+00   0.0000000E+00  -9.9900000E+02  -9.9900000E+02   1.0000000E+00
  0.0000000E+00   0.0000000E+00  -9.9900000E+02  -9.9900000E+02   1.0000000E+00
  0.0000000E+00   0.0000000E+00  -9.9900000E+02  -9.9900000E+02   1.0000000E+00
  0.0000000E+00   0.0000000E+00  -9.9900000E+02  -9.9900000E+02   1.0000000E+00
  0.0000000E+00   0.0000000E+00  -9.9900000E+02  -9.9900000E+02   1.0000000E+00
  0.0000000E+00   0.0000000E+00  -9.9900000E+02  -9.9900000E+02   1.0000000E+00
  0.0000000E+00   0.0000000E+00  -9.9900000E+02  -9.9900000E+02   1.0000000E+00
  0.0000000E+00   0.0000000E+00  -9.9900000E+02  -9.9900000E+02   1.0000000E+00
  0.0000000E+00   0.0000000E+00  -9.9900000E+02  -9.9900000E+02   1.0000000E+00
  0.0000000E+00   0.0000000E+00  -9.9900000E+02  -9.9900000E+02   1.0000000E+00
  0.0000000E+00   0.0000000E+00  -9.9900000E+02  -9.9900000E+02   1.0000000E+00
  0.0000000E+00   0.0000000E+00  -9.9900000E+02  -9.9900000E+02   1.0000000E+00
  0.0000000E+00   0.0000000E+00  -9.9900000E+02  -9.9900000E+02   1.0000000E+00
  0.0000000E+00   0.0000000E+00  -9.9900000E+02  -9.9900000E+02   1.0000000E+00
  0.0000000E+00   0.0000000E+00  -9.9900000E+02  -9.9900000E+02   1.0000000E+00
  0.0000000E+00   0.0000000E+00  -9.9900000E+02  -9.9900000E+02   1.0000000E+00
  0.0000000E+00   0.0000000E+00  -9.9900000E+02  -9.9900000E+02   1.0000000E+00
  0.0000000E+00   0.0000000E+00  -9.9900000E+02  -9.9900000E+02   1.0000000E+00
  0.0000000E+00   0.0000000E+00  -9.9900000E+02  -9.9900000E+02   1.0000000E+00
  0.0000000E+00   0.0000000E+00  -9.9900000E+02  -9.9900000E+02   1.0000000E+00
  0.0000000E+00   0.0000000E+00  -9.9900000E+02  -9.9900000E+02   1.0000000E+00
  0.0000000E+00   0.0000000E+00  -9.9900000E+02  -9.9900000E+02   1.0000000E+00
  0.0000000E+00   0.0000000E+00  -9.9900000E+02  -9.9900000E+02   1.0000000E+00
  0.0000000E+00   0.0000000E+00  -9.9900000E+02  -9.9900000E+02   1.0000000E+00
  0.0000000E+00   0.0000000E+00  -9.9900000E+02  -9.9900000E+02   1.0000000E+00
  0.0000000E+00   0.0000000E+00  -9.9900000E+02  -9.9900000E+02   1.0000000E+00
  0.0000000E+00   0.0000000E+00  -9.9900000E+02  -9.9900000E+02   1.0000000E+00
  0.0000000E+00   0.0000000E+00  -9.9900000E+02  -9.9900000E+02   1.0000000E+00
  0.0000000E+00   0.0000000E+00  -9.9900000E+02  -9.9900000E+02   1.0000000E+00
  0.0000000E+00   0.0000000E+00  -9.9900000E+02  -9.9900000E+02   1.0000000E+00
  0.0000000E+00   0.0000000E+00  -9.9900000E+02  -9.9900000E+02   1.0000000E+00
  0.0000000E+00   0.0000000E+00  -9.9900000E+02  -9.9900000E+02   1.0000000E+00
  0.0000000E+00   0.0000000E+00  -9.9900000E+02  -9.9900000E+02   1.0000000E+00
  0.0000000E+00   0.0000000E+00  -9.9900000E+02  -9.9900000E+02   1.0000000E+00
  0.0000000E+00   0.0000000E+00  -9.9900000E+02  -9.9900000E+02   1.0000000E+00
  0.0000000E+00   0.0000000E+00  -9.9900000E+02  -9.9900000E+02   1.0000000E+00
  0.0000000E+00   0.0000000E+00  -9.9900000E+02  -9.9900000E+02   1.0000000E+00
  0.0000000E+00   0.0000000E+00  -9.9900000E+02  -9.9900000E+02   1.0000000E+00
  0.0000000E+00   0.0000000E+00  -9.9900000E+02  -9.9900000E+02   1.0000000E+00
  0.0000000E+00   0.0000000E+00  -9.9900000E+02  -9.9900000E+02   1.0000000E+00
  0.0000000E+00   0.0000000E+00  -9.9900000E+02  -9.9900000E+02   1.0000000E+00
  0.0000000E+00   0.0000000E+00  -9.9900000E+02  -9.9900000E+02   1.0000000E+00
  0.0000000E+00   0.0000000E+00  -9.9900000E+02  -9.9900000E+02   1.0000000E+00
  0.0000000E+00   0.0000000E+00  -9.9900000E+02  -9.9900000E+02   1.0000000E+00
  0.0000000E+00   0.0000000E+00  -9.9900000E+02  -9.9900000E+02   1.0000000E+00
  0.0000000E+00   0.0000000E+00  -9.9900000E+02  -9.9900000E+02   1.0000000E+00
  0.0000000E+00   0.0000000E+00  -9.9900000E+02  -9.9900000E+02   1.0000000E+00
  0.0000000E+00   0.0000000E+00  -9.9900000E+02  -9.9900000E+02   1.0000000E+00
  0.0000000E+00   0.0000000E+00  -9.9900000E+02  -9.9900000E+02   1.0000000E+00
  0.0000000E+00   0.0000000E+00  -9.9900000E+02  -9.9900000E+02   1.0000000E+00
  0.0000000E+00   0.0000000E+00  -9.9900000E+02  -9.9900000E+02   1.0000000E+00
  0.0000000E+00   0.0000000E+00  -9.9900000E+02  -9.9900000E+02   1.0000000E+00
  0.0000000E+00   0.0000000E+00  -9.9900000E+02  -9.9900000E+02   1.0000000E+00
  0.0000000E+00   0.0000000E+00  -9.9900000E+02  -9.9900000E+02   1.0000000E+00
  0.0000000E+00   0.0000000E+00  -9.9900000E+02  -9.9900000E+02   1.0000000E+00
  0.0000000E+00   0.0000000E+00  -9.9900000E+02  -9.9900000E+02   1.0000000E+00
  0.0000000E+00   0.0000000E+00  -9.9900000E+02  -9.9900000E+02   1.0000000E+00
  0.0000000E+00   0.0000000E+00  -9.9900000E+02  -9.9900000E+02   1.0000000E+00
  0.0000000E+00   0.0000000E+00  -9.9900000E+02  -9.9900000E+02   1.0000000E+00
  0.0000000E+00   0.0000000E+00  -9.9900000E+02  -9.9900000E+02   1.0000000E+00
  0.0000000E+00   0.0000000E+00  -9.9900000E+02  -9.9900000E+02   1.0000000E+00
  0.0000000E+00   0.0000000E+00  -9.9900000E+02  -9.9900000E+02   1.0000000E+00
  0.0000000E+00   0.0000000E+00  -9.9900000E+02  -9.9900000E+02   1.0000000E+00
  0.0000000E+00   0.0000000E+00  -9.9900000E+02  -9.9900000E+02   1.0000000E+00
  0.0000000E+00   0.0000000E+00  -9.9900000E+02  -9.9900000E+02   1.0000000E+00
  0.0000000E+00   0.0000000E+00  -9.9900000E+02  -9.9900000E+02   1.0000000E+00
  0.0000000E+00   0.0000000E+00  -9.9900000E+02  -9.9900000E+02   1.0000000E+00
  0.0000000E+00   0.0000000E+00  -9.9900000E+02  -9.9900000E+02   1.0000000E+00
  0.0000000E+00   0.0000000E+00  -9.9900000E+02  -9.9900000E+02   1.0000000E+00
  0.0000000E+00   0.0000000E+00  -9.9900000E+02  -9.9900000E+02   1.0000000E+00
  0.0000000E+00   0.0000000E+00  -9.9900000E+02  -9.9900000E+02   1.0000000E+00
  0.0000000E+00   0.0000000E+00  -9.9900000E+02  -9.9900000E+02   1.0000000E+00
  0.0000000E+00   0.0000000E+00  -9.9900000E+02  -9.9900000E+02   1.0000000E+00
  0.0000000E+00   0.0000000E+00  -9.9900000E+02  -9.9900000E+02   1.0000000E+00
  0.0000000E+00   0.0000000E+00  -9.9900000E+02  -9.9900000E+02   1.0000000E+00
  0.0000000E+00   0.0000000E+00  -9.9900000E+02  -9.9900000E+02   1.0000000E+00
  0.0000000E+00   0.0000000E+00  -9.9900000E+02  -9.9900000E+02   1.0000000E+00
  0.0000000E+00   0.0000000E+00  -9.9900000E+02  -9.9900000E+02   1.0000000E+00
  0.0000000E+00   0.0000000E+00  -9.9900000E+02  -9.9900000E+02   1.0000000E+00
  0.0000000E+00   0.0000000E+00  -9.9900000E+02  -9.9900000E+02   1.0000000E+00
  0.0000000E+00   0.0000000E+00  -9.9900000E+02  -9.9900000E+02   1.0000000E+00
  0.0000000E+00   0.0000000E+00  -9.9900000E+02  -9.9900000E+02   1.0000000E+00
  0.0000000E+00   0.0000000E+00  -9.9900000E+02  -9.9900000E+02   1.0000000E+00
  0.0000000E+00   0.0000000E+00  -9.9900000E+02  -9.9900000E+02   1.0000000E+00
  0.0000000E+00   0.0000000E+00  -9.9900000E+02  -9.9900000E+02   1.0000000E+00
  0.0000000E+00   0.0000000E+00  -9.9900000E+02  -9.9900000E+02   1.0000000E+00
  0.0000000E+00   0.0000000E+00  -9.9900000E+02  -9.9900000E+02   1.0000000E+00
  0.0000000E+00   0.0000000E+00  -9.9900000E+02  -9.9900000E+02   1.0000000E+00
  0.0000000E+00   0.0000000E+00  -9.9900000E+02  -9.9900000E+02   1.0000000E+00
  0.0000000E+00   0.0000000E+00  -9.9900000E+02  -9.9900000E+02   1.0000000E+00
  0.0000000E+00   0.0000000E+00  -9.9900000E+02  -9.9900000E+02   1.0000000E+00
  0.0000000E+00   0.0000000E+00  -9.9900000E+02  -9.9900000E+02   1.0000000E+00
  0.0000000E+00   0.0000000E+00  -9.9900000E+02  -9.9900000E+02   1.0000000E+00
  0.0000000E+00   0.0000000E+00  -9.9900000E+02  -9.9900000E+02   1.0000000E+00
  0.0000000E+00   0.0000000E+00  -9.9900000E+02  -9.9900000E+02   1.0000000E+00
  0.0000000E+00   0.0000000E+00  -9.9900000E+02  -9.9900000E+02   1.0000000E+00
  0.0000000E+00   0.0000000E+00  -9.9900000E+02  -9.9900000E+02   1.0000000E+00
  0.0000000E+00   0.0000000E+00  -9.9900000E+02  -9.9900000E+02   1.0000000E+00
  0.0000000E+00   0.0000000E+00  -9.9900000E+02  -9.9900000E+02   1.0000000E+00
  0.0000000E+00   0.0000000E+00  -9.9900000E+02  -9.9900000E+02   1.0000000E+00
  0.0000000E+00   0.0000000E+00  -9.9900000E+02  -9.9900000E+02   1.0000000E+00
  0.0000000E+00   0.0000000E+00  -9.9900000E+02  -9.9900000E+02   1.0000000E+00
  0.0000000E+00   0.0000000E+00  -9.9900000E+02  -9.9900000E+02   1.0000000E+00
  0.0000000E+00   0.0000000E+00  -9.9900000E+02  -9.9900000E+02   1.0000000E+00
  0.0000000E+00   0.0000000E+00  -9.9900000E+02  -9.9900000E+02   1.0000000E+00
  0.0000000E+00   0.0000000E+00  -9.9900000E+02  -9.9900000E+02   1.0000000E+00
  0.0000000E+00   0.0000000E+00  -9.9900000E+02  -9.9900000E+02   1.0000000E+00
  0.0000000E+00   0.0000000E+00  -9.9900000E+02  -9.9900000E+02   1.0000000E+00
  0.0000000E+00   0.0000000E+00  -9.9900000E+02  -9.9900000E+02   1.0000000E+00
  0.0000000E+00   0.0000000E+00  -9.9900000E+02  -9.9900000E+02   1.0000000E+00
  0.0000000E+00   0.0000000E+00  -9.9900000E+02  -9.9900000E+02   1.0000000E+00
  0.0000000E+00   0.0000000E+00  -9.9900000E+02  -9.9900000E+02   1.0000000E+00
  0.0000000E+00   0.0000000E+00  -9.9900000E+02  -9.9900000E+02   1.0000000E+00
  0.0000000E+00   0.0000000E+00  -9.9900000E+02  -9.9900000E+02   1.0000000E+00
  0.0000000E+00   0.0000000E+00  -9.9900000E+02  -9.9900000E+02   1.0000000E+00
  0.0000000E+00   0.0000000E+00  -9.9900000E+02  -9.9900000E+02   1.0000000E+00
  0.0000000E+00   0.0000000E+00  -9.9900000E+02  -9.9900000E+02   1.0000000E+00
  0.0000000E+00   0.0000000E+00  -9.9900000E+02  -9.9900000E+02   1.0000000E+00
  0.0000000E+00   0.0000000E+00  -9.9900000E+02  -9.9900000E+02   1.0000000E+00
  0.0000000E+00   0.0000000E+00  -9.9900000E+02  -9.9900000E+02   1.0000000E+00
  0.0000000E+00   0.0000000E+00  -9.9900000E+02  -9.9900000E+02   1.0000000E+00
  0.0000000E+00   0.0000000E+00  -9.9900000E+02  -9.9900000E+02   1.0000000E+00
  0.0000000E+00   0.0000000E+00  -9.9900000E+02  -9.9900000E+02   1.0000000E+00
  0.0000000E+00   0.0000000E+00  -9.9900000E+02  -9.9900000E+02   1.0000000E+00
  0.0000000E+00   0.0000000E+00  -9.9900000E+02  -9.9900000E+02   1.0000000E+00
  0.0000000E+00   0.0000000E+00  -9.9900000E+02  -9.9900000E+02   1.0000000E+00
  0.0000000E+00   0.0000000E+00  -9.9900000E+02  -9.9900000E+02   1.0000000E+00
  0.0000000E+00   0.0000000E+00  -9.9900000E+02  -9.9900000E+02   1.0000000E+00
  0.0000000E+00   0.0000000E+00  -9.9900000E+02  -9.9900000E+02   1.0000000E+00
  0.0000000E+00   0.0000000E+00  -9.9900000E+02  -9.9900000E+02   1.0000000E+00
  0.0000000E+00   0.0000000E+00  -9.9900000E+02  -9.9900000E+02   1.0000000E+00
  0.0000000E+00   0.0000000E+00  -9.9900000E+02  -9.9900000E+02   1.0000000E+00
  0.0000000E+00   0.0000000E+00  -9.9900000E+02  -9.9900000E+02   1.0000000E+00
  0.0000000E+00   0.0000000E+00  -9.9900000E+02  -9.9900000E+02   1.0000000E+00
  0.0000000E+00   0.0000000E+00  -9.9900000E+02  -9.9900000E+02   1.0000000E+00
  0.0000000E+00   0.0000000E+00  -9.9900000E+02  -9.9900000E+02   1.0000000E+00
  0.0000000E+00   0.0000000E+00  -9.9900000E+02  -9.9900000E+02   1.0000000E+00
  0.0000000E+00   0.0000000E+00  -9.9900000E+02  -9.9900000E+02   1.0000000E+00
  0.0000000E+00   0.0000000E+00  -9.9900000E+02  -9.9900000E+02   1.0000000E+00
  0.0000000E+00   0.0000000E+00  -9.9900000E+02  -9.9900000E+02   1.0000000E+00
  0.0000000E+00   0.0000000E+00  -9.9900000E+02  -9.9900000E+02   1.0000000E+00
  0.0000000E+00   0.0000000E+00  -9.9900000E+02  -9.9900000E+02   1.0000000E+00
  0.0000000E+00   0.0000000E+00  -9.9900000E+02  -9.9900000E+02   1.0000000E+00
  0.0000000E+00   0.0000000E+00  -9.9900000E+02  -9.9900000E+02   1.0000000E+00
  0.0000000E+00   0.0000000E+00  -9.9900000E+02  -9.9900000E+02   1.0000000E+00
  0.0000000E+00   0.0000000E+00  -9.9900000E+02  -9.9900000E+02   1.0000000E+00
  0.0000000E+00   0.0000000E+00  -9.9900000E+02  -9.9900000E+02   1.0000000E+00
  0.0000000E+00   0.0000000E+00  -9.9900000E+02  -9.9900000E+02   1.0000000E+00
  0.0000000E+00   0.0000000E+00  -9.9900000E+02  -9.9900000E+02   1.0000000E+00
  0.0000000E+00   0.0000000E+00  -9.9900000E+02  -9.9900000E+02   1.0000000E+00
  0.0000000E+00   0.0000000E+00  -9.9900000E+02  -9.9900000E+02   1.0000000E+00
  0.0000000E+00   0.0000000E+00  -9.9900000E+02  -9.9900000E+02   1.0000000E+00
  0.0000000E+00   0.0000000E+00  -9.9900000E+02  -9.9900000E+02   1.0000000E+00
  0.0000000E+00   0.0000000E+00  -9.9900000E+02  -9.9900000E+02   1.0000000E+00
  0.0000000E+00   0.0000000E+00  -9.9900000E+02  -9.9900000E+02   1.0000000E+00
  0.0000000E+00   0.0000000E+00  -9.9900000E+02  -9.9900000E+02   1.0000000E+00
  0.0000000E+00   0.0000000E+00  -9.9900000E+02  -9.9900000E+02   1.0000000E+00
  0.0000000E+00   0.0000000E+00  -9.9900000E+02  -9.9900000E+02   1.0000000E+00
  0.0000000E+00   0.0000000E+00  -9.9900000E+02  -9.9900000E+02   1.0000000E+00
  0.0000000E+00   0.0000000E+00  -9.9900000E+02  -9.9900000E+02   1.0000000E+00
  0.0000000E+00   0.0000000E+00  -9.9900000E+02  -9.9900000E+02   1.0000000E+00
  0.0000000E+00   0.0000000E+00  -9.9900000E+02  -9.9900000E+02   1.0000000E+00
  0.0000000E+00   0.0000000E+00  -9.9900000E+02  -9.9900000E+02   1.0000000E+00
  0.0000000E+00   0.0000000E+00  -9.9900000E+02  -9.9900000E+02   1.0000000E+00
  0.0000000E+00   0.0000000E+00  -9.9900000E+02  -9.9900000E+02   1.0000000E+00
  0.0000000E+00   0.0000000E+00  -9.9900000E+02  -9.9900000E+02   1.0000000E+00
  0.0000000E+00   0.0000000E+00  -9.9900000E+02  -9.9900000E+02   1.0000000E+00
  0.0000000E+00   0.0000000E+00  -9.9900000E+02  -9.9900000E+02   1.0000000E+00
  0.0000000E+00   0.0000000E+00  -9.9900000E+02  -9.9900000E+02   1.0000000E+00
  7.7361916E+05   9.3201060E+06   1.5694104E+00  -9.9900000E+02   1.0000000E+00
  7.7436916E+05   9.3201060E+06   1.4003489E+00  -9.9900000E+02   1.0000000E+00
  7.7511916E+05   9.3201060E+06   2.0000000E+00  -9.9900000E+02   1.0000000E+00
  7.7586916E+05   9.3201060E+06   2.6822239E+00  -9.9900000E+02   1.0000000E+00
  7.7661916E+05   9.3201060E+06   4.3078877E+00  -9.9900000E+02   1.0000000E+00
  7.7736916E+05   9.3201060E+06   5.9335536E+00  -9.9900000E+02   1.0000000E+00
  7.7811916E+05   9.3201060E+06   5.0000000E+00  -9.9900000E+02   1.0000000E+00
  7.7886916E+05   9.3201060E+06   3.8151187E+00  -9.9900000E+02   1.0000000E+00
  7.7961916E+05   9.3201060E+06   2.2199983E+00  -9.9900000E+02   1.0000000E+00
  7.8036916E+05   9.3201060E+06   3.0000000E+00  -9.9900000E+02   1.0000000E+00
  7.8111916E+05   9.3201060E+06   4.1542953E+00  -9.9900000E+02   1.0000000E+00
  7.8186916E+05   9.3201060E+06   6.7180861E+00  -9.9900000E+02   1.0000000E+00
  7.8261916E+05   9.3201060E+06   8.6264095E+00  -9.9900000E+02   1.0000000E+00
  7.8336916E+05   9.3201060E+06   1.0000000E+01  -9.9900000E+02   1.0000000E+00
[...]
  7.5486916E+05   9.4513560E+06   2.5019119E+01  -9.9900000E+02   1.0000000E+00
  7.5561916E+05   9.4513560E+06   2.5039454E+01  -9.9900000E+02   1.0000000E+00
  7.5636916E+05   9.4513560E+06   2.5082024E+01  -9.9900000E+02   1.0000000E+00
  7.5711916E+05   9.4513560E+06   2.5173107E+01  -9.9900000E+02   1.0000000E+00
  7.5786916E+05   9.4513560E+06   2.5417134E+01  -9.9900000E+02   1.0000000E+00
  7.5861916E+05   9.4513560E+06   2.5757727E+01  -9.9900000E+02   1.0000000E+00
  7.5936916E+05   9.4513560E+06   2.6132696E+01  -9.9900000E+02   1.0000000E+00
  7.6011916E+05   9.4513560E+06   2.6476372E+01  -9.9900000E+02   1.0000000E+00
  7.6086916E+05   9.4513560E+06   2.6792136E+01  -9.9900000E+02   1.0000000E+00
  7.6161916E+05   9.4513560E+06   2.7026803E+01  -9.9900000E+02   1.0000000E+00
  7.6236916E+05   9.4513560E+06   2.7305450E+01  -9.9900000E+02   1.0000000E+00
  7.6311916E+05   9.4513560E+06   2.7615408E+01  -9.9900000E+02   1.0000000E+00
  7.6386916E+05   9.4513560E+06   2.7848414E+01  -9.9900000E+02   1.0000000E+00
  7.6461916E+05   9.4513560E+06   2.7940604E+01  -9.9900000E+02   1.0000000E+00
  7.6536916E+05   9.4513560E+06   2.7996973E+01  -9.9900000E+02   1.0000000E+00
  7.6611916E+05   9.4513560E+06   2.8051645E+01  -9.9900000E+02   1.0000000E+00
  7.6686916E+05   9.4513560E+06   2.8137791E+01  -9.9900000E+02   1.0000000E+00
  7.6761916E+05   9.4513560E+06   2.8357017E+01  -9.9900000E+02   1.0000000E+00
  7.6836916E+05   9.4513560E+06   2.8637680E+01  -9.9900000E+02   1.0000000E+00
  7.6911916E+05   9.4513560E+06   2.8853934E+01  -9.9900000E+02   1.0000000E+00
  7.6986916E+05   9.4513560E+06   2.8932468E+01  -9.9900000E+02   1.0000000E+00
  7.7061916E+05   9.4513560E+06   2.8970614E+01  -9.9900000E+02   1.0000000E+00
  7.7136916E+05   9.4513560E+06   2.8992172E+01  -9.9900000E+02   1.0000000E+00
  7.7211916E+05   9.4513560E+06   2.9009337E+01  -9.9900000E+02   1.0000000E+00
  7.7286916E+05   9.4513560E+06   2.9031748E+01  -9.9900000E+02   1.0000000E+00
  7.7361916E+05   9.4513560E+06   2.9072208E+01  -9.9900000E+02   1.0000000E+00
  7.7436916E+05   9.4513560E+06   2.9158692E+01  -9.9900000E+02   1.0000000E+00
  7.7511916E+05   9.4513560E+06   2.9378969E+01  -9.9900000E+02   1.0000000E+00
  7.7586916E+05   9.4513560E+06   2.9656972E+01  -9.9900000E+02   1.0000000E+00
  7.7661916E+05   9.4513560E+06   2.9870378E+01  -9.9900000E+02   1.0000000E+00
  7.7736916E+05   9.4513560E+06   2.9958301E+01  -9.9900000E+02   1.0000000E+00
  7.7811916E+05   9.4513560E+06   3.0020520E+01  -9.9900000E+02   1.0000000E+00
  7.7886916E+05   9.4513560E+06   3.0095553E+01  -9.9900000E+02   1.0000000E+00
  7.7961916E+05   9.4513560E+06   3.0255462E+01  -9.9900000E+02   1.0000000E+00
  7.8036916E+05   9.4513560E+06   3.0509359E+01  -9.9900000E+02   1.0000000E+00
  7.8111916E+05   9.4513560E+06   3.0757164E+01  -9.9900000E+02   1.0000000E+00
  7.8186916E+05   9.4513560E+06   3.0902482E+01  -9.9900000E+02   1.0000000E+00
  7.8261916E+05   9.4513560E+06   3.0966084E+01  -9.9900000E+02   1.0000000E+00
  7.8336916E+05   9.4513560E+06   3.1009454E+01  -9.9900000E+02   1.0000000E+00
  7.8411916E+05   9.4513560E+06   3.1058182E+01  -9.9900000E+02   1.0000000E+00
  7.8486916E+05   9.4513560E+06   3.1142054E+01  -9.9900000E+02   1.0000000E+00
  7.8561916E+05   9.4513560E+06   3.1361394E+01  -9.9900000E+02   1.0000000E+00
  7.8636916E+05   9.4513560E+06   3.1644626E+01  -9.9900000E+02   1.0000000E+00
  7.8711916E+05   9.4513560E+06   3.1867345E+01  -9.9900000E+02   1.0000000E+00
  7.8786916E+05   9.4513560E+06   3.1959939E+01  -9.9900000E+02   1.0000000E+00
  7.8861916E+05   9.4513560E+06   3.2029215E+01  -9.9900000E+02   1.0000000E+00
  7.8936916E+05   9.4513560E+06   3.2151603E+01  -9.9900000E+02   1.0000000E+00
  7.9011916E+05   9.4513560E+06   3.2248654E+01  -9.9900000E+02   1.0000000E+00
  6.4011916E+05   9.4521060E+06   2.2759711E+01  -9.9900000E+02   1.0000000E+00
  6.4086916E+05   9.4521060E+06   2.2800810E+01  -9.9900000E+02   1.0000000E+00
  6.4161916E+05   9.4521060E+06   2.2912771E+01  -9.9900000E+02   1.0000000E+00
  6.4236916E+05   9.4521060E+06   2.3136842E+01  -9.9900000E+02   1.0000000E+00
  6.4311916E+05   9.4521060E+06   2.3354622E+01  -9.9900000E+02   1.0000000E+00
  6.4386916E+05   9.4521060E+06   2.3610619E+01  -9.9900000E+02   1.0000000E+00
  6.4461916E+05   9.4521060E+06   2.3819225E+01  -9.9900000E+02   1.0000000E+00
  6.4536916E+05   9.4521060E+06   2.3959259E+01  -9.9900000E+02   1.0000000E+00
  6.4611916E+05   9.4521060E+06   2.4001515E+01  -9.9900000E+02   1.0000000E+00
  6.4686916E+05   9.4521060E+06   2.4047407E+01  -9.9900000E+02   1.0000000E+00
  6.4761916E+05   9.4521060E+06   2.4207077E+01  -9.9900000E+02   1.0000000E+00
  6.4836916E+05   9.4521060E+06   2.4163733E+01  -9.9900000E+02   1.0000000E+00
  6.4911916E+05   9.4521060E+06   2.3513348E+01  -9.9900000E+02   1.0000000E+00
  6.4986916E+05   9.4521060E+06   2.2128531E+01  -9.9900000E+02   1.0000000E+00
  6.5061916E+05   9.4521060E+06   2.0671517E+01  -9.9900000E+02   1.0000000E+00
  6.5136916E+05   9.4521060E+06   1.9735013E+01  -9.9900000E+02   1.0000000E+00
  6.5211916E+05   9.4521060E+06   1.9684452E+01  -9.9900000E+02   1.0000000E+00
  6.5286916E+05   9.4521060E+06   2.0400646E+01  -9.9900000E+02   1.0000000E+00
  6.5361916E+05   9.4521060E+06   2.1515916E+01  -9.9900000E+02   1.0000000E+00
  6.5436916E+05   9.4521060E+06   2.2526722E+01  -9.9900000E+02   1.0000000E+00
  6.5511916E+05   9.4521060E+06   2.3100732E+01  -9.9900000E+02   1.0000000E+00
  6.5586916E+05   9.4521060E+06   2.3136889E+01  -9.9900000E+02   1.0000000E+00
  6.5661916E+05   9.4521060E+06   2.2755550E+01  -9.9900000E+02   1.0000000E+00
  6.5736916E+05   9.4521060E+06   2.2323809E+01  -9.9900000E+02   1.0000000E+00
  6.5811916E+05   9.4521060E+06   2.2110307E+01  -9.9900000E+02   1.0000000E+00
  6.5886916E+05   9.4521060E+06   2.2471836E+01  -9.9900000E+02   1.0000000E+00
  6.5961916E+05   9.4521060E+06   2.3228949E+01  -9.9900000E+02   1.0000000E+00
  6.6036916E+05   9.4521060E+06   2.3959629E+01  -9.9900000E+02   1.0000000E+00
  6.6111916E+05   9.4521060E+06   2.4161278E+01  -9.9900000E+02   1.0000000E+00
  6.6186916E+05   9.4521060E+06   2.4422897E+01  -9.9900000E+02   1.0000000E+00
  6.6261916E+05   9.4521060E+06   2.5525855E+01  -9.9900000E+02   1.0000000E+00
  6.6336916E+05   9.4521060E+06   2.7618450E+01  -9.9900000E+02   1.0000000E+00
  6.6411916E+05   9.4521060E+06   2.9545147E+01  -9.9900000E+02   1.0000000E+00
  6.6486916E+05   9.4521060E+06   2.9708835E+01  -9.9900000E+02   1.0000000E+00
  6.6561916E+05   9.4521060E+06   2.7367758E+01  -9.9900000E+02   1.0000000E+00
  6.6636916E+05   9.4521060E+06   2.4122856E+01  -9.9900000E+02   1.0000000E+00
  6.6711916E+05   9.4521060E+06   2.1894904E+01  -9.9900000E+02   1.0000000E+00
  6.6786916E+05   9.4521060E+06   2.1075589E+01  -9.9900000E+02   1.0000000E+00
  6.6861916E+05   9.4521060E+06   2.0745007E+01  -9.9900000E+02   1.0000000E+00
  6.6936916E+05   9.4521060E+06   2.0615317E+01  -9.9900000E+02   1.0000000E+00
  6.7011916E+05   9.4521060E+06   2.0709978E+01  -9.9900000E+02   1.0000000E+00
  6.7086916E+05   9.4521060E+06   2.0921463E+01  -9.9900000E+02   1.0000000E+00
  6.7161916E+05   9.4521060E+06   2.1279172E+01  -9.9900000E+02   1.0000000E+00
  6.7236916E+05   9.4521060E+06   2.1606893E+01  -9.9900000E+02   1.0000000E+00
  6.7311916E+05   9.4521060E+06   2.1691157E+01  -9.9900000E+02   1.0000000E+00
  6.7386916E+05   9.4521060E+06   2.1448493E+01  -9.9900000E+02   1.0000000E+00
  6.7461916E+05   9.4521060E+06   2.1174059E+01  -9.9900000E+02   1.0000000E+00
  6.7536916E+05   9.4521060E+06   2.1031659E+01  -9.9900000E+02   1.0000000E+00
  6.7611916E+05   9.4521060E+06   2.0965239E+01  -9.9900000E+02   1.0000000E+00
  6.7686916E+05   9.4521060E+06   2.0815394E+01  -9.9900000E+02   1.0000000E+00
  6.7761916E+05   9.4521060E+06   2.0557206E+01  -9.9900000E+02   1.0000000E+00
  6.7836916E+05   9.4521060E+06   2.0414475E+01  -9.9900000E+02   1.0000000E+00
  6.7911916E+05   9.4521060E+06   2.0555862E+01  -9.9900000E+02   1.0000000E+00
  6.7986916E+05   9.4521060E+06   2.0837976E+01  -9.9900000E+02   1.0000000E+00
  6.8061916E+05   9.4521060E+06   2.1085897E+01  -9.9900000E+02   1.0000000E+00
  6.8136916E+05   9.4521060E+06   2.1539971E+01  -9.9900000E+02   1.0000000E+00
  6.8211916E+05   9.4521060E+06   2.2283033E+01  -9.9900000E+02   1.0000000E+00
  6.8286916E+05   9.4521060E+06   2.2932172E+01  -9.9900000E+02   1.0000000E+00
  6.8361916E+05   9.4521060E+06   2.3141263E+01  -9.9900000E+02   1.0000000E+00
  6.8436916E+05   9.4521060E+06   2.3080158E+01  -9.9900000E+02   1.0000000E+00
  6.8511916E+05   9.4521060E+06   2.3019273E+01  -9.9900000E+02   1.0000000E+00
  6.8586916E+05   9.4521060E+06   2.3004642E+01  -9.9900000E+02   1.0000000E+00
  6.8661916E+05   9.4521060E+06   2.3001152E+01  -9.9900000E+02   1.0000000E+00
  6.8736916E+05   9.4521060E+06   2.3000428E+01  -9.9900000E+02   1.0000000E+00
  6.8811916E+05   9.4521060E+06   2.3000731E+01  -9.9900000E+02   1.0000000E+00
  6.8886916E+05   9.4521060E+06   2.3002787E+01  -9.9900000E+02   1.0000000E+00
  6.8961916E+05   9.4521060E+06   2.3011534E+01  -9.9900000E+02   1.0000000E+00
  6.9036916E+05   9.4521060E+06   2.3047963E+01  -9.9900000E+02   1.0000000E+00
  6.9111916E+05   9.4521060E+06   2.3199501E+01  -9.9900000E+02   1.0000000E+00
  6.9186916E+05   9.4521060E+06   2.3495130E+01  -9.9900000E+02   1.0000000E+00
  6.9261916E+05   9.4521060E+06   2.3800909E+01  -9.9900000E+02   1.0000000E+00
  6.9336916E+05   9.4521060E+06   2.3994158E+01  -9.9900000E+02   1.0000000E+00
  6.9411916E+05   9.4521060E+06   2.4173385E+01  -9.9900000E+02   1.0000000E+00
  6.9486916E+05   9.4521060E+06   2.4434023E+01  -9.9900000E+02   1.0000000E+00
  6.9561916E+05   9.4521060E+06   2.4623446E+01  -9.9900000E+02   1.0000000E+00
  6.9636916E+05   9.4521060E+06   2.4570059E+01  -9.9900000E+02   1.0000000E+00
  6.9711916E+05   9.4521060E+06   2.4569761E+01  -9.9900000E+02   1.0000000E+00
  6.9786916E+05   9.4521060E+06   2.5053742E+01  -9.9900000E+02   1.0000000E+00
  6.9861916E+05   9.4521060E+06   2.5917019E+01  -9.9900000E+02   1.0000000E+00
  6.9936916E+05   9.4521060E+06   2.6708076E+01  -9.9900000E+02   1.0000000E+00
  7.0011916E+05   9.4521060E+06   2.7101643E+01  -9.9900000E+02   1.0000000E+00
  7.0086916E+05   9.4521060E+06   2.7027961E+01  -9.9900000E+02   1.0000000E+00
  7.0161916E+05   9.4521060E+06   2.6584745E+01  -9.9900000E+02   1.0000000E+00
  7.0236916E+05   9.4521060E+06   2.6038831E+01  -9.9900000E+02   1.0000000E+00
  7.0311916E+05   9.4521060E+06   2.5555538E+01  -9.9900000E+02   1.0000000E+00
  7.0386916E+05   9.4521060E+06   2.5183699E+01  -9.9900000E+02   1.0000000E+00
  7.0461916E+05   9.4521060E+06   2.4887452E+01  -9.9900000E+02   1.0000000E+00
  7.0536916E+05   9.4521060E+06   2.4564633E+01  -9.9900000E+02   1.0000000E+00
  7.0611916E+05   9.4521060E+06   2.4244853E+01  -9.9900000E+02   1.0000000E+00
  7.0686916E+05   9.4521060E+06   2.4056266E+01  -9.9900000E+02   1.0000000E+00
  7.0761916E+05   9.4521060E+06   2.4002716E+01  -9.9900000E+02   1.0000000E+00
  7.0836916E+05   9.4521060E+06   2.3955684E+01  -9.9900000E+02   1.0000000E+00
  7.0911916E+05   9.4521060E+06   2.3802294E+01  -9.9900000E+02   1.0000000E+00
  7.0986916E+05   9.4521060E+06   2.3509123E+01  -9.9900000E+02   1.0000000E+00
  7.1061916E+05   9.4521060E+06   2.3216007E+01  -9.9900000E+02   1.0000000E+00
  7.1136916E+05   9.4521060E+06   2.3076022E+01  -9.9900000E+02   1.0000000E+00
  7.1211916E+05   9.4521060E+06   2.3118489E+01  -9.9900000E+02   1.0000000E+00
  7.1286916E+05   9.4521060E+06   2.3445329E+01  -9.9900000E+02   1.0000000E+00
  7.1361916E+05   9.4521060E+06   2.4840958E+01  -9.9900000E+02   1.0000000E+00
  7.1436916E+05   9.4521060E+06   2.7862521E+01  -9.9900000E+02   1.0000000E+00
  7.1511916E+05   9.4521060E+06   3.4197124E+01  -9.9900000E+02   1.0000000E+00
  7.1586916E+05   9.4521060E+06   4.1967424E+01  -9.9900000E+02   1.0000000E+00
  7.1661916E+05   9.4521060E+06   4.7147016E+01  -9.9900000E+02   1.0000000E+00
  7.1736916E+05   9.4521060E+06   4.7110724E+01  -9.9900000E+02   1.0000000E+00
  7.1811916E+05   9.4521060E+06   4.4235389E+01  -9.9900000E+02   1.0000000E+00
  7.1886916E+05   9.4521060E+06   4.0676385E+01  -9.9900000E+02   1.0000000E+00
  7.1961916E+05   9.4521060E+06   3.7157368E+01  -9.9900000E+02   1.0000000E+00
  7.2036916E+05   9.4521060E+06   3.4040728E+01  -9.9900000E+02   1.0000000E+00
  7.2111916E+05   9.4521060E+06   3.1601489E+01  -9.9900000E+02   1.0000000E+00
  7.2186916E+05   9.4521060E+06   2.9926736E+01  -9.9900000E+02   1.0000000E+00
  7.2261916E+05   9.4521060E+06   2.8898655E+01  -9.9900000E+02   1.0000000E+00
  7.2336916E+05   9.4521060E+06   2.8331453E+01  -9.9900000E+02   1.0000000E+00
  7.2411916E+05   9.4521060E+06   2.8041770E+01  -9.9900000E+02   1.0000000E+00
  7.2486916E+05   9.4521060E+06   2.7852333E+01  -9.9900000E+02   1.0000000E+00
  7.2561916E+05   9.4521060E+06   2.7308496E+01  -9.9900000E+02   1.0000000E+00
  7.2636916E+05   9.4521060E+06   2.6076905E+01  -9.9900000E+02   1.0000000E+00
  7.2711916E+05   9.4521060E+06   2.4437894E+01  -9.9900000E+02   1.0000000E+00
  7.2786916E+05   9.4521060E+06   2.4345317E+01  -9.9900000E+02   1.0000000E+00
  7.2861916E+05   9.4521060E+06   2.5723282E+01  -9.9900000E+02   1.0000000E+00
  7.2936916E+05   9.4521060E+06   2.6784054E+01  -9.9900000E+02   1.0000000E+00
  7.3011916E+05   9.4521060E+06   2.6251351E+01  -9.9900000E+02   1.0000000E+00
  7.3086916E+05   9.4521060E+06   2.5469322E+01  -9.9900000E+02   1.0000000E+00
  7.3161916E+05   9.4521060E+06   2.5113668E+01  -9.9900000E+02   1.0000000E+00
  7.3236916E+05   9.4521060E+06   2.5030816E+01  -9.9900000E+02   1.0000000E+00
  7.3311916E+05   9.4521060E+06   2.5021923E+01  -9.9900000E+02   1.0000000E+00
  7.3386916E+05   9.4521060E+06   2.5065643E+01  -9.9900000E+02   1.0000000E+00
  7.3461916E+05   9.4521060E+06   2.5198136E+01  -9.9900000E+02   1.0000000E+00
  7.3536916E+05   9.4521060E+06   2.5373198E+01  -9.9900000E+02   1.0000000E+00
  7.3611916E+05   9.4521060E+06   2.5562287E+01  -9.9900000E+02   1.0000000E+00
  7.3686916E+05   9.4521060E+06   2.5618562E+01  -9.9900000E+02   1.0000000E+00
  7.3761916E+05   9.4521060E+06   2.5533634E+01  -9.9900000E+02   1.0000000E+00
  7.3836916E+05   9.4521060E+06   2.5315596E+01  -9.9900000E+02   1.0000000E+00
  7.3911916E+05   9.4521060E+06   2.5139928E+01  -9.9900000E+02   1.0000000E+00
  7.3986916E+05   9.4521060E+06   2.5033844E+01  -9.9900000E+02   1.0000000E+00
  7.4061916E+05   9.4521060E+06   2.5008987E+01  -9.9900000E+02   1.0000000E+00
  7.4136916E+05   9.4521060E+06   2.5005699E+01  -9.9900000E+02   1.0000000E+00
  7.4211916E+05   9.4521060E+06   2.5016090E+01  -9.9900000E+02   1.0000000E+00
  7.4286916E+05   9.4521060E+06   2.5267092E+01  -9.9900000E+02   1.0000000E+00
  7.4361916E+05   9.4521060E+06   2.5690854E+01  -9.9900000E+02   1.0000000E+00
  7.4436916E+05   9.4521060E+06   2.6018733E+01  -9.9900000E+02   1.0000000E+00
  7.4511916E+05   9.4521060E+06   2.6010309E+01  -9.9900000E+02   1.0000000E+00
  7.4586916E+05   9.4521060E+06   2.5838369E+01  -9.9900000E+02   1.0000000E+00
  7.4661916E+05   9.4521060E+06   2.5609139E+01  -9.9900000E+02   1.0000000E+00
  7.4736916E+05   9.4521060E+06   2.5385221E+01  -9.9900000E+02   1.0000000E+00
  7.4811916E+05   9.4521060E+06   2.5211028E+01  -9.9900000E+02   1.0000000E+00
  7.4886916E+05   9.4521060E+06   2.5104638E+01  -9.9900000E+02   1.0000000E+00
  7.4961916E+05   9.4521060E+06   2.5050583E+01  -9.9900000E+02   1.0000000E+00
  7.5036916E+05   9.4521060E+06   2.5024600E+01  -9.9900000E+02   1.0000000E+00
  7.5111916E+05   9.4521060E+06   2.5012396E+01  -9.9900000E+02   1.0000000E+00
  7.5186916E+05   9.4521060E+06   2.5007140E+01  -9.9900000E+02   1.0000000E+00
  7.5261916E+05   9.4521060E+06   2.5005888E+01  -9.9900000E+02   1.0000000E+00
  7.5336916E+05   9.4521060E+06   2.5007937E+01  -9.9900000E+02   1.0000000E+00
  7.5411916E+05   9.4521060E+06   2.5014435E+01  -9.9900000E+02   1.0000000E+00
  7.5486916E+05   9.4521060E+06   2.5029025E+01  -9.9900000E+02   1.0000000E+00
  7.5561916E+05   9.4521060E+06   2.5059884E+01  -9.9900000E+02   1.0000000E+00
  7.5636916E+05   9.4521060E+06   2.5124208E+01  -9.9900000E+02   1.0000000E+00
  7.5711916E+05   9.4521060E+06   2.5255817E+01  -9.9900000E+02   1.0000000E+00
  7.5786916E+05   9.4521060E+06   2.5478868E+01  -9.9900000E+02   1.0000000E+00
  7.5861916E+05   9.4521060E+06   2.5782485E+01  -9.9900000E+02   1.0000000E+00
  7.5936916E+05   9.4521060E+06   2.6121456E+01  -9.9900000E+02   1.0000000E+00
  7.6011916E+05   9.4521060E+06   2.6455357E+01  -9.9900000E+02   1.0000000E+00
  7.6086916E+05   9.4521060E+06   2.6758361E+01  -9.9900000E+02   1.0000000E+00
  7.6161916E+05   9.4521060E+06   2.7037073E+01  -9.9900000E+02   1.0000000E+00
  7.6236916E+05   9.4521060E+06   2.7309644E+01  -9.9900000E+02   1.0000000E+00
  7.6311916E+05   9.4521060E+06   2.7570365E+01  -9.9900000E+02   1.0000000E+00
  7.6386916E+05   9.4521060E+06   2.7776847E+01  -9.9900000E+02   1.0000000E+00
  7.6461916E+05   9.4521060E+06   2.7910142E+01  -9.9900000E+02   1.0000000E+00
  7.6536916E+05   9.4521060E+06   2.7995404E+01  -9.9900000E+02   1.0000000E+00
  7.6611916E+05   9.4521060E+06   2.8078089E+01  -9.9900000E+02   1.0000000E+00
  7.6686916E+05   9.4521060E+06   2.8202210E+01  -9.9900000E+02   1.0000000E+00
  7.6761916E+05   9.4521060E+06   2.8387779E+01  -9.9900000E+02   1.0000000E+00
  7.6836916E+05   9.4521060E+06   2.8604171E+01  -9.9900000E+02   1.0000000E+00
  7.6911916E+05   9.4521060E+06   2.8785227E+01  -9.9900000E+02   1.0000000E+00
  7.6986916E+05   9.4521060E+06   2.8897791E+01  -9.9900000E+02   1.0000000E+00
  7.7061916E+05   9.4521060E+06   2.8955402E+01  -9.9900000E+02   1.0000000E+00
  7.7136916E+05   9.4521060E+06   2.8988117E+01  -9.9900000E+02   1.0000000E+00
  7.7211916E+05   9.4521060E+06   2.9014174E+01  -9.9900000E+02   1.0000000E+00
  7.7286916E+05   9.4521060E+06   2.9048167E+01  -9.9900000E+02   1.0000000E+00
  7.7361916E+05   9.4521060E+06   2.9108930E+01  -9.9900000E+02   1.0000000E+00
  7.7436916E+05   9.4521060E+06   2.9225611E+01  -9.9900000E+02   1.0000000E+00
  7.7511916E+05   9.4521060E+06   2.9409244E+01  -9.9900000E+02   1.0000000E+00
  7.7586916E+05   9.4521060E+06   2.9625130E+01  -9.9900000E+02   1.0000000E+00
  7.7661916E+05   9.4521060E+06   2.9809814E+01  -9.9900000E+02   1.0000000E+00
  7.7736916E+05   9.4521060E+06   2.9936985E+01  -9.9900000E+02   1.0000000E+00
  7.7811916E+05   9.4521060E+06   3.0030989E+01  -9.9900000E+02   1.0000000E+00
  7.7886916E+05   9.4521060E+06   3.0141151E+01  -9.9900000E+02   1.0000000E+00
  7.7961916E+05   9.4521060E+06   3.0301332E+01  -9.9900000E+02   1.0000000E+00
  7.8036916E+05   9.4521060E+06   3.0505812E+01  -9.9900000E+02   1.0000000E+00
  7.8111916E+05   9.4521060E+06   3.0706045E+01  -9.9900000E+02   1.0000000E+00
  7.8186916E+05   9.4521060E+06   3.0855332E+01  -9.9900000E+02   1.0000000E+00
  7.8261916E+05   9.4521060E+06   3.0948663E+01  -9.9900000E+02   1.0000000E+00
  7.8336916E+05   9.4521060E+06   3.1014345E+01  -9.9900000E+02   1.0000000E+00
  7.8411916E+05   9.4521060E+06   3.1088014E+01  -9.9900000E+02   1.0000000E+00
  7.8486916E+05   9.4521060E+06   3.1208681E+01  -9.9900000E+02   1.0000000E+00
  7.8561916E+05   9.4521060E+06   3.1394424E+01  -9.9900000E+02   1.0000000E+00
  7.8636916E+05   9.4521060E+06   3.1614715E+01  -9.9900000E+02   1.0000000E+00
  7.8711916E+05   9.4521060E+06   3.1805578E+01  -9.9900000E+02   1.0000000E+00
  7.8786916E+05   9.4521060E+06   3.1939289E+01  -9.9900000E+02   1.0000000E+00
  7.8861916E+05   9.4521060E+06   3.2039761E+01  -9.9900000E+02   1.0000000E+00
  7.8936916E+05   9.4521060E+06   3.2128367E+01  -9.9900000E+02   1.0000000E+00
  7.9011916E+05   9.4521060E+06   3.2178942E+01  -9.9900000E+02   1.0000000E+00
