*
* Deltares, Delft3D-QUICKIN Version 4.18.01.18383, Sep  7 2011, 14:23:24
* File creation date: 2024-08-02, 14:29:01
*
L001
      66   2
   7.0720442E+05   9.3265308E+06
   7.0715722E+05   9.3263143E+06
   7.0711945E+05   9.3261377E+06
   7.0712165E+05   9.3260739E+06
   7.0713558E+05   9.3258987E+06
   7.0714871E+05   9.3257228E+06
   7.0720363E+05   9.3257202E+06
   7.0732875E+05   9.3256963E+06
   7.0741274E+05   9.3256904E+06
   7.0755966E+05   9.3256608E+06
   7.0763230E+05   9.3256428E+06
   7.0765107E+05   9.3256992E+06
   7.0766680E+05   9.3258081E+06
   7.0769474E+05   9.3259452E+06
   7.0771452E+05   9.3260581E+06
   7.0772358E+05   9.3261073E+06
   7.0773893E+05   9.3261065E+06
   7.0771329E+05   9.3259355E+06
   7.0768286E+05   9.3257814E+06
   7.0765331E+05   9.3256443E+06
   7.0767672E+05   9.3256402E+06
   7.0771036E+05   9.3257918E+06
   7.0773921E+05   9.3259556E+06
   7.0776102E+05   9.3259547E+06
   7.0775689E+05   9.3259297E+06
   7.0779885E+05   9.3259182E+06
   7.0780540E+05   9.3259432E+06
   7.0785225E+05   9.3259414E+06
   7.0785303E+05   9.3259334E+06
   7.0787401E+05   9.3259260E+06
   7.0787415E+05   9.3257348E+06
   7.0785872E+05   9.3257130E+06
   7.0784714E+05   9.3256340E+06
   7.0786246E+05   9.3256251E+06
   7.0786072E+05   9.3255912E+06
   7.0785045E+05   9.3254233E+06
   7.0782460E+05   9.3254242E+06
   7.0782531E+05   9.3253952E+06
   7.0780986E+05   9.3253678E+06
   7.0778231E+05   9.3253429E+06
   7.0775317E+05   9.3253252E+06
   7.0772164E+05   9.3253189E+06
   7.0773734E+05   9.3254205E+06
   7.0767433E+05   9.3254191E+06
   7.0766764E+05   9.3253522E+06
   7.0766351E+05   9.3253264E+06
   7.0763758E+05   9.3253038E+06
   7.0741816E+05   9.3251569E+06
   7.0735095E+05   9.3251120E+06
   7.0733804E+05   9.3251152E+06
   7.0737654E+05   9.3252692E+06
   7.0741429E+05   9.3254394E+06
   7.0746150E+05   9.3256587E+06
   7.0742195E+05   9.3256661E+06
   7.0732629E+05   9.3256838E+06
   7.0722052E+05   9.3257007E+06
   7.0713653E+05   9.3257055E+06
   7.0713135E+05   9.3257257E+06
   7.0711819E+05   9.3258923E+06
   7.0710821E+05   9.3260409E+06
   7.0710609E+05   9.3261301E+06
   7.0712289E+05   9.3261982E+06
   7.0715157E+05   9.3263143E+06
   7.0717207E+05   9.3264034E+06
   7.0718761E+05   9.3264586E+06
   7.0720442E+05   9.3265308E+06
L002
      14   2
   7.0740232E+05   9.3264095E+06
   7.0742819E+05   9.3264166E+06
   7.0758591E+05   9.3264734E+06
   7.0767890E+05   9.3264997E+06
   7.0768288E+05   9.3264827E+06
   7.0781958E+05   9.3265339E+06
   7.0782923E+05   9.3265226E+06
   7.0779363E+05   9.3265049E+06
   7.0772245E+05   9.3264802E+06
   7.0767151E+05   9.3264666E+06
   7.0766914E+05   9.3264820E+06
   7.0747748E+05   9.3264197E+06
   7.0740468E+05   9.3263917E+06
   7.0740232E+05   9.3264095E+06
L003
      23   2
   7.0774205E+05   9.3259588E+06
   7.0775380E+05   9.3260854E+06
   7.0777440E+05   9.3262032E+06
   7.0780408E+05   9.3263762E+06
   7.0783940E+05   9.3265427E+06
   7.0785835E+05   9.3266508E+06
   7.0790201E+05   9.3268931E+06
   7.0792839E+05   9.3270456E+06
   7.0794811E+05   9.3271399E+06
   7.0796708E+05   9.3272537E+06
   7.0798265E+05   9.3273165E+06
   7.0799486E+05   9.3273423E+06
   7.0800211E+05   9.3273375E+06
   7.0798744E+05   9.3272996E+06
   7.0797662E+05   9.3272084E+06
   7.0793643E+05   9.3270351E+06
   7.0791901E+05   9.3269044E+06
   7.0785150E+05   9.3265390E+06
   7.0781116E+05   9.3263197E+06
   7.0777407E+05   9.3261084E+06
   7.0775177E+05   9.3259664E+06
   7.0775052E+05   9.3259575E+06
   7.0774205E+05   9.3259588E+06
L004
      11   2
   7.0781774E+05   9.3259474E+06
   7.0780442E+05   9.3259495E+06
   7.0781056E+05   9.3259749E+06
   7.0782621E+05   9.3260608E+06
   7.0783609E+05   9.3261140E+06
   7.0785837E+05   9.3262487E+06
   7.0787156E+05   9.3263253E+06
   7.0788771E+05   9.3263245E+06
   7.0786672E+05   9.3262115E+06
   7.0785191E+05   9.3261341E+06
   7.0781774E+05   9.3259474E+06
L005
       8   2
   7.0785389E+05   9.3259475E+06
   7.0783874E+05   9.3259469E+06
   7.0784304E+05   9.3259631E+06
   7.0785392E+05   9.3260155E+06
   7.0786725E+05   9.3260743E+06
   7.0787998E+05   9.3260745E+06
   7.0787523E+05   9.3260447E+06
   7.0785389E+05   9.3259475E+06
L006
      24   2
   6.9601809E+05   9.3250040E+06
   6.9607829E+05   9.3251362E+06
   6.9613198E+05   9.3252522E+06
   6.9622316E+05   9.3254666E+06
   6.9628334E+05   9.3255922E+06
   6.9633028E+05   9.3256179E+06
   6.9637552E+05   9.3256210E+06
   6.9655485E+05   9.3256236E+06
   6.9669702E+05   9.3256264E+06
   6.9669208E+05   9.3255974E+06
   6.9651761E+05   9.3255995E+06
   6.9634071E+05   9.3255969E+06
   6.9630351E+05   9.3255825E+06
   6.9626691E+05   9.3255068E+06
   6.9624899E+05   9.3254608E+06
   6.9625460E+05   9.3254495E+06
   6.9616841E+05   9.3252747E+06
   6.9610079E+05   9.3251006E+06
   6.9605934E+05   9.3250217E+06
   6.9606493E+05   9.3250023E+06
   6.9603000E+05   9.3249419E+06
   6.9601868E+05   9.3249395E+06
   6.9598403E+05   9.3249630E+06
   6.9601809E+05   9.3250040E+06
L007
      22   2
   6.9648941E+05   9.3246402E+06
   6.9645467E+05   9.3246378E+06
   6.9641348E+05   9.3246388E+06
   6.9610723E+05   9.3248480E+06
   6.9617023E+05   9.3248462E+06
   6.9618896E+05   9.3248937E+06
   6.9628097E+05   9.3248716E+06
   6.9630272E+05   9.3248530E+06
   6.9631799E+05   9.3248287E+06
   6.9633743E+05   9.3248456E+06
   6.9633834E+05   9.3248771E+06
   6.9636585E+05   9.3248907E+06
   6.9639507E+05   9.3249342E+06
   6.9642026E+05   9.3249809E+06
   6.9658181E+05   9.3249796E+06
   6.9659153E+05   9.3249876E+06
   6.9642454E+05   9.3250535E+06
   6.9643433E+05   9.3250834E+06
   6.9660127E+05   9.3250037E+06
   6.9666076E+05   9.3251633E+06
   6.9668093E+05   9.3251552E+06
   6.9648941E+05   9.3246402E+06
L008
      30   2
   6.9747823E+05   9.3243197E+06
   6.9747339E+05   9.3243198E+06
   6.9747141E+05   9.3243323E+06
   6.9747667E+05   9.3243343E+06
   6.9752553E+05   9.3243317E+06
   6.9752475E+05   9.3244628E+06
   6.9751892E+05   9.3246525E+06
   6.9751978E+05   9.3247909E+06
   6.9748694E+05   9.3248753E+06
   6.9745692E+05   9.3249565E+06
   6.9745568E+05   9.3250691E+06
   6.9747850E+05   9.3251299E+06
   6.9752330E+05   9.3252448E+06
   6.9757090E+05   9.3253483E+06
   6.9759938E+05   9.3254128E+06
   6.9761917E+05   9.3254111E+06
   6.9759961E+05   9.3253595E+06
   6.9755935E+05   9.3252757E+06
   6.9751335E+05   9.3251657E+06
   6.9747063E+05   9.3250711E+06
   6.9747232E+05   9.3249734E+06
   6.9750794E+05   9.3248740E+06
   6.9753718E+05   9.3248001E+06
   6.9753730E+05   9.3245947E+06
   6.9754173E+05   9.3243482E+06
   6.9756151E+05   9.3243441E+06
   6.9756180E+05   9.3243098E+06
   6.9753958E+05   9.3243086E+06
   6.9754043E+05   9.3243208E+06
   6.9747823E+05   9.3243197E+06
L009
      30   2
   6.9760866E+05   9.3244339E+06
   6.9757958E+05   9.3244340E+06
   6.9759630E+05   9.3247253E+06
   6.9759666E+05   9.3248334E+06
   6.9756946E+05   9.3249158E+06
   6.9754704E+05   9.3249740E+06
   6.9753906E+05   9.3250035E+06
   6.9754363E+05   9.3250406E+06
   6.9754939E+05   9.3250724E+06
   6.9757461E+05   9.3251292E+06
   6.9761006E+05   9.3252207E+06
   6.9764103E+05   9.3253057E+06
   6.9767689E+05   9.3254000E+06
   6.9771676E+05   9.3254895E+06
   6.9772811E+05   9.3255027E+06
   6.9774101E+05   9.3254938E+06
   6.9770159E+05   9.3254197E+06
   6.9767387E+05   9.3253431E+06
   6.9764208E+05   9.3252573E+06
   6.9757832E+05   9.3250901E+06
   6.9756016E+05   9.3250334E+06
   6.9755840E+05   9.3249899E+06
   6.9757878E+05   9.3249244E+06
   6.9761125E+05   9.3248509E+06
   6.9761636E+05   9.3248077E+06
   6.9760889E+05   9.3246258E+06
   6.9760688E+05   9.3245071E+06
   6.9775106E+05   9.3245079E+06
   6.9775043E+05   9.3244369E+06
   6.9760866E+05   9.3244339E+06
L010
     191   2
   7.0370782E+05   9.3241533E+06
   7.0371577E+05   9.3241135E+06
   7.0373482E+05   9.3240178E+06
   7.0377053E+05   9.3238285E+06
   7.0380781E+05   9.3236298E+06
   7.0383399E+05   9.3234905E+06
   7.0385460E+05   9.3233779E+06
   7.0387230E+05   9.3233560E+06
   7.0389890E+05   9.3233398E+06
   7.0392635E+05   9.3233369E+06
   7.0396394E+05   9.3233436E+06
   7.0400679E+05   9.3233560E+06
   7.0406624E+05   9.3233792E+06
   7.0413457E+05   9.3234015E+06
   7.0419036E+05   9.3234167E+06
   7.0423926E+05   9.3234266E+06
   7.0426958E+05   9.3234366E+06
   7.0429266E+05   9.3234518E+06
   7.0433356E+05   9.3234832E+06
   7.0437847E+05   9.3235068E+06
   7.0442861E+05   9.3235248E+06
   7.0450091E+05   9.3235274E+06
   7.0454815E+05   9.3235216E+06
   7.0459615E+05   9.3235045E+06
   7.0463652E+05   9.3234983E+06
   7.0471044E+05   9.3235016E+06
   7.0479570E+05   9.3235143E+06
   7.0485311E+05   9.3235326E+06
   7.0491940E+05   9.3235461E+06
   7.0498653E+05   9.3235713E+06
   7.0504922E+05   9.3235977E+06
   7.0510990E+05   9.3236253E+06
   7.0515929E+05   9.3236619E+06
   7.0521757E+05   9.3236972E+06
   7.0530294E+05   9.3237385E+06
   7.0530825E+05   9.3237574E+06
   7.0530674E+05   9.3237893E+06
   7.0530282E+05   9.3238228E+06
   7.0527668E+05   9.3238560E+06
   7.0526099E+05   9.3238718E+06
   7.0522794E+05   9.3238917E+06
   7.0520218E+05   9.3239176E+06
   7.0519743E+05   9.3239458E+06
   7.0519366E+05   9.3240245E+06
   7.0520099E+05   9.3240414E+06
   7.0522452E+05   9.3240724E+06
   7.0525646E+05   9.3240828E+06
   7.0529168E+05   9.3241045E+06
   7.0531436E+05   9.3241250E+06
   7.0531648E+05   9.3241516E+06
   7.0532545E+05   9.3241786E+06
   7.0535793E+05   9.3242249E+06
   7.0539438E+05   9.3242550E+06
   7.0550026E+05   9.3242720E+06
   7.0556489E+05   9.3242770E+06
   7.0557733E+05   9.3242516E+06
   7.0560660E+05   9.3241897E+06
   7.0562631E+05   9.3241691E+06
   7.0567599E+05   9.3241693E+06
   7.0573542E+05   9.3241839E+06
   7.0580371E+05   9.3241943E+06
   7.0585706E+05   9.3242046E+06
   7.0590437E+05   9.3242220E+06
   7.0592096E+05   9.3242314E+06
   7.0591684E+05   9.3242668E+06
   7.0590667E+05   9.3243604E+06
   7.0589726E+05   9.3244427E+06
   7.0590420E+05   9.3244661E+06
   7.0596121E+05   9.3245416E+06
   7.0601496E+05   9.3246092E+06
   7.0607642E+05   9.3246869E+06
   7.0609510E+05   9.3247162E+06
   7.0611325E+05   9.3247091E+06
   7.0607794E+05   9.3246604E+06
   7.0596719E+05   9.3245176E+06
   7.0591284E+05   9.3244516E+06
   7.0591536E+05   9.3244233E+06
   7.0593545E+05   9.3242760E+06
   7.0595094E+05   9.3240822E+06
   7.0597465E+05   9.3239320E+06
   7.0600038E+05   9.3238965E+06
   7.0597121E+05   9.3238723E+06
   7.0599817E+05   9.3237238E+06
   7.0556301E+05   9.3235550E+06
   7.0543036E+05   9.3235054E+06
   7.0530102E+05   9.3234760E+06
   7.0522479E+05   9.3233899E+06
   7.0514141E+05   9.3233353E+06
   7.0496024E+05   9.3232682E+06
   7.0467891E+05   9.3232021E+06
   7.0458852E+05   9.3232234E+06
   7.0457727E+05   9.3232404E+06
   7.0458620E+05   9.3232549E+06
   7.0457901E+05   9.3232759E+06
   7.0455806E+05   9.3232929E+06
   7.0453548E+05   9.3233027E+06
   7.0450802E+05   9.3233036E+06
   7.0449830E+05   9.3232956E+06
   7.0449985E+05   9.3232770E+06
   7.0447803E+05   9.3232739E+06
   7.0446757E+05   9.3232860E+06
   7.0447652E+05   9.3233029E+06
   7.0446848E+05   9.3233167E+06
   7.0444189E+05   9.3233345E+06
   7.0440799E+05   9.3233419E+06
   7.0437807E+05   9.3233323E+06
   7.0434890E+05   9.3233042E+06
   7.0435119E+05   9.3232678E+06
   7.0436894E+05   9.3232597E+06
   7.0438638E+05   9.3231652E+06
   7.0434271E+05   9.3231508E+06
   7.0433800E+05   9.3231888E+06
   7.0431316E+05   9.3232478E+06
   7.0432450E+05   9.3232558E+06
   7.0433101E+05   9.3232711E+06
   7.0433111E+05   9.3233002E+06
   7.0433845E+05   9.3233219E+06
   7.0436602E+05   9.3233517E+06
   7.0439514E+05   9.3233621E+06
   7.0442905E+05   9.3233580E+06
   7.0445808E+05   9.3233449E+06
   7.0447741E+05   9.3233287E+06
   7.0447977E+05   9.3233102E+06
   7.0449190E+05   9.3233142E+06
   7.0452423E+05   9.3233205E+06
   7.0455652E+05   9.3233147E+06
   7.0458150E+05   9.3232961E+06
   7.0460396E+05   9.3232520E+06
   7.0467979E+05   9.3232211E+06
   7.0485119E+05   9.3232665E+06
   7.0498861E+05   9.3232967E+06
   7.0513341E+05   9.3233592E+06
   7.0519979E+05   9.3234009E+06
   7.0526956E+05   9.3234870E+06
   7.0532457E+05   9.3235134E+06
   7.0539409E+05   9.3235285E+06
   7.0541526E+05   9.3235164E+06
   7.0543512E+05   9.3235385E+06
   7.0545855E+05   9.3235400E+06
   7.0550464E+05   9.3235528E+06
   7.0559288E+05   9.3236098E+06
   7.0565204E+05   9.3236660E+06
   7.0567559E+05   9.3237027E+06
   7.0568899E+05   9.3237236E+06
   7.0568674E+05   9.3237725E+06
   7.0567431E+05   9.3237975E+06
   7.0563892E+05   9.3238412E+06
   7.0561349E+05   9.3238457E+06
   7.0553312E+05   9.3238480E+06
   7.0549507E+05   9.3238227E+06
   7.0544365E+05   9.3237870E+06
   7.0540314E+05   9.3237496E+06
   7.0535014E+05   9.3237232E+06
   7.0530928E+05   9.3237039E+06
   7.0524331E+05   9.3236638E+06
   7.0519755E+05   9.3236297E+06
   7.0516107E+05   9.3235919E+06
   7.0512863E+05   9.3235549E+06
   7.0510720E+05   9.3235457E+06
   7.0506515E+05   9.3235329E+06
   7.0500618E+05   9.3235323E+06
   7.0496456E+05   9.3235272E+06
   7.0491320E+05   9.3235068E+06
   7.0486346E+05   9.3234888E+06
   7.0482544E+05   9.3234732E+06
   7.0478787E+05   9.3234701E+06
   7.0474747E+05   9.3234646E+06
   7.0470821E+05   9.3234421E+06
   7.0468397E+05   9.3234386E+06
   7.0464681E+05   9.3234395E+06
   7.0462544E+05   9.3234477E+06
   7.0458319E+05   9.3234946E+06
   7.0454771E+05   9.3235109E+06
   7.0445725E+05   9.3235140E+06
   7.0442451E+05   9.3235065E+06
   7.0436343E+05   9.3234780E+06
   7.0430676E+05   9.3234411E+06
   7.0426792E+05   9.3234219E+06
   7.0417899E+05   9.3233992E+06
   7.0403787E+05   9.3233504E+06
   7.0395334E+05   9.3233168E+06
   7.0392426E+05   9.3233157E+06
   7.0389440E+05   9.3233231E+06
   7.0385932E+05   9.3233413E+06
   7.0384564E+05   9.3233543E+06
   7.0381742E+05   9.3234863E+06
   7.0378171E+05   9.3236745E+06
   7.0374521E+05   9.3238655E+06
   7.0371428E+05   9.3240322E+06
   7.0369207E+05   9.3241538E+06
   7.0370782E+05   9.3241533E+06
L011
      93   2
   7.1286595E+05   9.3256196E+06
   7.1283873E+05   9.3256002E+06
   7.1283866E+05   9.3256011E+06
   7.1280227E+05   9.3255899E+06
   7.1266737E+05   9.3255904E+06
   7.1258012E+05   9.3255899E+06
   7.1253877E+05   9.3255464E+06
   7.1245881E+05   9.3255508E+06
   7.1246397E+05   9.3258655E+06
   7.1245838E+05   9.3261117E+06
   7.1246039E+05   9.3264490E+06
   7.1258562E+05   9.3264526E+06
   7.1280535E+05   9.3264550E+06
   7.1284898E+05   9.3264565E+06
   7.1285012E+05   9.3264926E+06
   7.1284939E+05   9.3265148E+06
   7.1258824E+05   9.3265085E+06
   7.1245574E+05   9.3265033E+06
   7.1242014E+05   9.3264897E+06
   7.1237639E+05   9.3264519E+06
   7.1233350E+05   9.3264311E+06
   7.1224621E+05   9.3264201E+06
   7.1183503E+05   9.3264207E+06
   7.1089717E+05   9.3264257E+06
   7.1032522E+05   9.3264228E+06
   7.1027845E+05   9.3264456E+06
   7.1022841E+05   9.3264587E+06
   7.0986170E+05   9.3264697E+06
   7.0904741E+05   9.3264637E+06
   7.0888546E+05   9.3264711E+06
   7.0883272E+05   9.3265197E+06
   7.0876794E+05   9.3265897E+06
   7.0875958E+05   9.3266240E+06
   7.0875265E+05   9.3267229E+06
   7.0873710E+05   9.3268961E+06
   7.0871481E+05   9.3271056E+06
   7.0869915E+05   9.3272469E+06
   7.0868678E+05   9.3272907E+06
   7.0867577E+05   9.3273204E+06
   7.0866134E+05   9.3273511E+06
   7.0863924E+05   9.3273837E+06
   7.0860624E+05   9.3274199E+06
   7.0857482E+05   9.3274444E+06
   7.0856476E+05   9.3274541E+06
   7.0856803E+05   9.3274648E+06
   7.0857992E+05   9.3274571E+06
   7.0861114E+05   9.3274338E+06
   7.0863146E+05   9.3274111E+06
   7.0864814E+05   9.3273897E+06
   7.0867365E+05   9.3273499E+06
   7.0868949E+05   9.3273157E+06
   7.0869909E+05   9.3272884E+06
   7.0871026E+05   9.3272503E+06
   7.0871899E+05   9.3272032E+06
   7.0872086E+05   9.3271608E+06
   7.0872539E+05   9.3271277E+06
   7.0873347E+05   9.3270708E+06
   7.0873628E+05   9.3270071E+06
   7.0874593E+05   9.3269386E+06
   7.0875533E+05   9.3268531E+06
   7.0876106E+05   9.3267590E+06
   7.0877238E+05   9.3266476E+06
   7.0878188E+05   9.3265907E+06
   7.0879917E+05   9.3265700E+06
   7.0885874E+05   9.3265097E+06
   7.0889822E+05   9.3264793E+06
   7.0893496E+05   9.3264776E+06
   7.0901090E+05   9.3264777E+06
   7.0913167E+05   9.3264773E+06
   7.0922659E+05   9.3264786E+06
   7.0936756E+05   9.3264801E+06
   7.0952670E+05   9.3264815E+06
   7.0971290E+05   9.3264805E+06
   7.0986396E+05   9.3264787E+06
   7.0997827E+05   9.3264796E+06
   7.1015559E+05   9.3264834E+06
   7.1019155E+05   9.3264845E+06
   7.1018481E+05   9.3265224E+06
   7.1017557E+05   9.3265358E+06
   7.1017882E+05   9.3266552E+06
   7.1017982E+05   9.3270567E+06
   7.1018227E+05   9.3272939E+06
   7.1034305E+05   9.3272982E+06
   7.1090526E+05   9.3272882E+06
   7.1172604E+05   9.3272933E+06
   7.1246116E+05   9.3272891E+06
   7.1287154E+05   9.3272893E+06
   7.1286470E+05   9.3268434E+06
   7.1286245E+05   9.3266642E+06
   7.1286258E+05   9.3263624E+06
   7.1286332E+05   9.3262303E+06
   7.1286599E+05   9.3256201E+06
   7.1286595E+05   9.3256196E+06
L012
      75   2
   6.8759476E+05   9.3388999E+06
   6.8752801E+05   9.3389109E+06
   6.8749153E+05   9.3389562E+06
   6.8746361E+05   9.3389864E+06
   6.8738821E+05   9.3389866E+06
   6.8730418E+05   9.3389826E+06
   6.8723751E+05   9.3390194E+06
   6.8715590E+05   9.3391035E+06
   6.8712586E+05   9.3391445E+06
   6.8710007E+05   9.3391640E+06
   6.8707868E+05   9.3392135E+06
   6.8704431E+05   9.3392480E+06
   6.8701637E+05   9.3392675E+06
   6.8697759E+05   9.3392676E+06
   6.8696699E+05   9.3393257E+06
   6.8697154E+05   9.3394032E+06
   6.8698044E+05   9.3394957E+06
   6.8696779E+05   9.3395861E+06
   6.8694421E+05   9.3396228E+06
   6.8698961E+05   9.3396743E+06
   6.8702426E+05   9.3397344E+06
   6.8707826E+05   9.3397794E+06
   6.8712131E+05   9.3397685E+06
   6.8717518E+05   9.3397705E+06
   6.8719666E+05   9.3397489E+06
   6.8723116E+05   9.3397575E+06
   6.8725478E+05   9.3397337E+06
   6.8729999E+05   9.3397228E+06
   6.8733010E+05   9.3397077E+06
   6.8737960E+05   9.3396881E+06
   6.8742048E+05   9.3396708E+06
   6.8745491E+05   9.3396599E+06
   6.8746734E+05   9.3396712E+06
   6.8749212E+05   9.3396738E+06
   6.8751315E+05   9.3396823E+06
   6.8754332E+05   9.3396860E+06
   6.8756484E+05   9.3396757E+06
   6.8754752E+05   9.3396483E+06
   6.8753777E+05   9.3396312E+06
   6.8754905E+05   9.3396198E+06
   6.8757813E+05   9.3396208E+06
   6.8762231E+05   9.3396234E+06
   6.8764329E+05   9.3396152E+06
   6.8764755E+05   9.3395991E+06
   6.8766099E+05   9.3395910E+06
   6.8766956E+05   9.3395759E+06
   6.8767488E+05   9.3395538E+06
   6.8768234E+05   9.3395280E+06
   6.8768117E+05   9.3394984E+06
   6.8767577E+05   9.3394930E+06
   6.8765904E+05   9.3394839E+06
   6.8767248E+05   9.3394742E+06
   6.8768646E+05   9.3394682E+06
   6.8768426E+05   9.3394543E+06
   6.8767237E+05   9.3394403E+06
   6.8764704E+05   9.3394350E+06
   6.8763680E+05   9.3394324E+06
   6.8761353E+05   9.3393980E+06
   6.8760262E+05   9.3393534E+06
   6.8760307E+05   9.3393238E+06
   6.8761378E+05   9.3393044E+06
   6.8762447E+05   9.3392769E+06
   6.8762111E+05   9.3392366E+06
   6.8761782E+05   9.3392145E+06
   6.8762692E+05   9.3391973E+06
   6.8764464E+05   9.3391795E+06
   6.8764348E+05   9.3391531E+06
   6.8764713E+05   9.3391155E+06
   6.8765407E+05   9.3390955E+06
   6.8765666E+05   9.3390611E+06
   6.8765648E+05   9.3390041E+06
   6.8762616E+05   9.3389504E+06
   6.8762173E+05   9.3389122E+06
   6.8761522E+05   9.3388977E+06
   6.8759476E+05   9.3388999E+06
L013
      80   2
   6.8912504E+05   9.3386792E+06
   6.8861899E+05   9.3389279E+06
   6.8862121E+05   9.3389505E+06
   6.8860734E+05   9.3389915E+06
   6.8855782E+05   9.3390035E+06
   6.8851693E+05   9.3390154E+06
   6.8851700E+05   9.3390391E+06
   6.8845347E+05   9.3390457E+06
   6.8843953E+05   9.3390684E+06
   6.8843645E+05   9.3391146E+06
   6.8845265E+05   9.3391307E+06
   6.8845056E+05   9.3391501E+06
   6.8845176E+05   9.3391910E+06
   6.8848187E+05   9.3391737E+06
   6.8850128E+05   9.3391790E+06
   6.8850026E+05   9.3391994E+06
   6.8852192E+05   9.3392349E+06
   6.8859093E+05   9.3392594E+06
   6.8862761E+05   9.3392765E+06
   6.8866212E+05   9.3392882E+06
   6.8869068E+05   9.3392946E+06
   6.8871760E+05   9.3392891E+06
   6.8872241E+05   9.3392768E+06
   6.8873258E+05   9.3392579E+06
   6.8875625E+05   9.3392498E+06
   6.8878213E+05   9.3392567E+06
   6.8879082E+05   9.3392798E+06
   6.8880704E+05   9.3392991E+06
   6.8883504E+05   9.3392969E+06
   6.8884089E+05   9.3392737E+06
   6.8885325E+05   9.3392667E+06
   6.8887911E+05   9.3392666E+06
   6.8891781E+05   9.3392439E+06
   6.8896573E+05   9.3392383E+06
   6.8896735E+05   9.3392378E+06
   6.8899480E+05   9.3392313E+06
   6.8901366E+05   9.3392339E+06
   6.8903150E+05   9.3392554E+06
   6.8904608E+05   9.3392704E+06
   6.8907193E+05   9.3392687E+06
   6.8908911E+05   9.3392487E+06
   6.8911652E+05   9.3392325E+06
   6.8914127E+05   9.3392227E+06
   6.8917836E+05   9.3391995E+06
   6.8921599E+05   9.3391779E+06
   6.8925256E+05   9.3391568E+06
   6.8927299E+05   9.3391459E+06
   6.8928969E+05   9.3391486E+06
   6.8929783E+05   9.3391690E+06
   6.8930543E+05   9.3391862E+06
   6.8930862E+05   9.3391743E+06
   6.8931015E+05   9.3391469E+06
   6.8932188E+05   9.3391071E+06
   6.8934871E+05   9.3390752E+06
   6.8934702E+05   9.3390516E+06
   6.8937813E+05   9.3390090E+06
   6.8938664E+05   9.3389751E+06
   6.8937405E+05   9.3389111E+06
   6.8938149E+05   9.3388793E+06
   6.8939757E+05   9.3388529E+06
   6.8939802E+05   9.3388239E+06
   6.8937542E+05   9.3388298E+06
   6.8936256E+05   9.3388519E+06
   6.8936048E+05   9.3388762E+06
   6.8935035E+05   9.3389095E+06
   6.8932651E+05   9.3388650E+06
   6.8930705E+05   9.3388419E+06
   6.8929621E+05   9.3388188E+06
   6.8932634E+05   9.3388106E+06
   6.8935595E+05   9.3388057E+06
   6.8935804E+05   9.3387836E+06
   6.8933217E+05   9.3387794E+06
   6.8927076E+05   9.3387748E+06
   6.8924403E+05   9.3387539E+06
   6.8923326E+05   9.3387555E+06
   6.8921034E+05   9.3387437E+06
   6.8918657E+05   9.3387218E+06
   6.8916442E+05   9.3386995E+06
   6.8914524E+05   9.3386818E+06
   6.8912504E+05   9.3386792E+06
L014
      47   2
   6.9346721E+05   9.3324291E+06
   6.9347198E+05   9.3324038E+06
   6.9346007E+05   9.3323850E+06
   6.9345200E+05   9.3323872E+06
   6.9344234E+05   9.3324002E+06
   6.9343373E+05   9.3324007E+06
   6.9341161E+05   9.3323900E+06
   6.9340567E+05   9.3323831E+06
   6.9338193E+05   9.3323686E+06
   6.9336251E+05   9.3323595E+06
   6.9334150E+05   9.3323569E+06
   6.9332641E+05   9.3323532E+06
   6.9330701E+05   9.3323516E+06
   6.9329733E+05   9.3323544E+06
   6.9328120E+05   9.3323636E+06
   6.9327261E+05   9.3323717E+06
   6.9326404E+05   9.3323851E+06
   6.9325763E+05   9.3324040E+06
   6.9324908E+05   9.3324223E+06
   6.9323566E+05   9.3324374E+06
   6.9322872E+05   9.3324552E+06
   6.9321801E+05   9.3324757E+06
   6.9320191E+05   9.3324940E+06
   6.9319387E+05   9.3325059E+06
   6.9318583E+05   9.3325172E+06
   6.9318588E+05   9.3325322E+06
   6.9318863E+05   9.3325516E+06
   6.9319137E+05   9.3325645E+06
   6.9319894E+05   9.3325758E+06
   6.9321194E+05   9.3325967E+06
   6.9321955E+05   9.3326188E+06
   6.9322606E+05   9.3326343E+06
   6.9323418E+05   9.3326478E+06
   6.9324771E+05   9.3326698E+06
   6.9326337E+05   9.3326821E+06
   6.9327147E+05   9.3326869E+06
   6.9329949E+05   9.3326927E+06
   6.9331295E+05   9.3326927E+06
   6.9333288E+05   9.3326926E+06
   6.9335174E+05   9.3326953E+06
   6.9337492E+05   9.3327016E+06
   6.9341318E+05   9.3327112E+06
   6.9343468E+05   9.3326982E+06
   6.9343785E+05   9.3326788E+06
   6.9345174E+05   9.3326444E+06
   6.9346457E+05   9.3326120E+06
   6.9346721E+05   9.3324291E+06
L015
      36   2
   6.9209378E+05   9.3322205E+06
   6.9209060E+05   9.3322356E+06
   6.9208974E+05   9.3323055E+06
   6.9208878E+05   9.3323405E+06
   6.9209257E+05   9.3323485E+06
   6.9210442E+05   9.3323474E+06
   6.9210869E+05   9.3323350E+06
   6.9211023E+05   9.3323113E+06
   6.9211662E+05   9.3322882E+06
   6.9211542E+05   9.3322522E+06
   6.9212076E+05   9.3322365E+06
   6.9213469E+05   9.3322144E+06
   6.9215187E+05   9.3321972E+06
   6.9217281E+05   9.3321788E+06
   6.9218730E+05   9.3321626E+06
   6.9218883E+05   9.3321341E+06
   6.9218443E+05   9.3321051E+06
   6.9217465E+05   9.3320777E+06
   6.9216328E+05   9.3320605E+06
   6.9214655E+05   9.3320487E+06
   6.9213256E+05   9.3320541E+06
   6.9210779E+05   9.3320542E+06
   6.9209001E+05   9.3320516E+06
   6.9208349E+05   9.3320338E+06
   6.9206465E+05   9.3320344E+06
   6.9205713E+05   9.3320409E+06
   6.9204423E+05   9.3320512E+06
   6.9205290E+05   9.3320662E+06
   6.9206101E+05   9.3320775E+06
   6.9206755E+05   9.3321001E+06
   6.9206919E+05   9.3321097E+06
   6.9206823E+05   9.3321463E+06
   6.9206240E+05   9.3321754E+06
   6.9208184E+05   9.3321904E+06
   6.9208833E+05   9.3321995E+06
   6.9209378E+05   9.3322205E+06
L016
      47   2
   6.9184933E+05   9.3327442E+06
   6.9184540E+05   9.3328615E+06
   6.9185086E+05   9.3328862E+06
   6.9186385E+05   9.3329055E+06
   6.9187895E+05   9.3329119E+06
   6.9189940E+05   9.3329086E+06
   6.9191772E+05   9.3329118E+06
   6.9193392E+05   9.3329247E+06
   6.9194474E+05   9.3329397E+06
   6.9196201E+05   9.3329515E+06
   6.9198249E+05   9.3329557E+06
   6.9201372E+05   9.3329545E+06
   6.9203631E+05   9.3329448E+06
   6.9205352E+05   9.3329361E+06
   6.9207612E+05   9.3329317E+06
   6.9209982E+05   9.3329327E+06
   6.9210305E+05   9.3329327E+06
   6.9212994E+05   9.3329197E+06
   6.9214605E+05   9.3329068E+06
   6.9217075E+05   9.3328819E+06
   6.9219436E+05   9.3328550E+06
   6.9220509E+05   9.3328431E+06
   6.9221367E+05   9.3328323E+06
   6.9220716E+05   9.3328151E+06
   6.9219957E+05   9.3328001E+06
   6.9219303E+05   9.3327764E+06
   6.9218003E+05   9.3327528E+06
   6.9217670E+05   9.3327227E+06
   6.9217017E+05   9.3327001E+06
   6.9215173E+05   9.3326614E+06
   6.9212905E+05   9.3326421E+06
   6.9210316E+05   9.3326282E+06
   6.9207190E+05   9.3326208E+06
   6.9205359E+05   9.3326230E+06
   6.9205261E+05   9.3326531E+06
   6.9204730E+05   9.3326747E+06
   6.9201497E+05   9.3326705E+06
   6.9200416E+05   9.3326565E+06
   6.9200840E+05   9.3326371E+06
   6.9200078E+05   9.3326103E+06
   6.9196316E+05   9.3326362E+06
   6.9194495E+05   9.3326685E+06
   6.9192886E+05   9.3326901E+06
   6.9190304E+05   9.3326977E+06
   6.9187934E+05   9.3326978E+06
   6.9185138E+05   9.3327119E+06
   6.9184933E+05   9.3327442E+06
L017
      32   2
   6.9319720E+05   9.3335452E+06
   6.9319340E+05   9.3335339E+06
   6.9318585E+05   9.3335334E+06
   6.9317779E+05   9.3335367E+06
   6.9317619E+05   9.3335415E+06
   6.9316759E+05   9.3335496E+06
   6.9315844E+05   9.3335491E+06
   6.9315411E+05   9.3335421E+06
   6.9314490E+05   9.3335276E+06
   6.9313250E+05   9.3335217E+06
   6.9312712E+05   9.3335239E+06
   6.9312338E+05   9.3335331E+06
   6.9312342E+05   9.3335444E+06
   6.9313048E+05   9.3335632E+06
   6.9313373E+05   9.3335707E+06
   6.9314562E+05   9.3335846E+06
   6.9315913E+05   9.3335964E+06
   6.9316672E+05   9.3336136E+06
   6.9316572E+05   9.3336373E+06
   6.9315770E+05   9.3336556E+06
   6.9314319E+05   9.3336659E+06
   6.9313461E+05   9.3336783E+06
   6.9313196E+05   9.3336912E+06
   6.9312824E+05   9.3337074E+06
   6.9313474E+05   9.3337186E+06
   6.9315145E+05   9.3337213E+06
   6.9316812E+05   9.3337153E+06
   6.9318370E+05   9.3337034E+06
   6.9320463E+05   9.3336797E+06
   6.9321314E+05   9.3336463E+06
   6.9321137E+05   9.3335979E+06
   6.9319720E+05   9.3335452E+06
L018
      28   2
   6.9700580E+05   9.3361475E+06
   6.9713722E+05   9.3361481E+06
   6.9718891E+05   9.3361426E+06
   6.9724485E+05   9.3361219E+06
   6.9727165E+05   9.3360799E+06
   6.9730812E+05   9.3360324E+06
   6.9731551E+05   9.3359883E+06
   6.9729814E+05   9.3359464E+06
   6.9726681E+05   9.3359185E+06
   6.9724734E+05   9.3358928E+06
   6.9722894E+05   9.3358648E+06
   6.9722243E+05   9.3358509E+06
   6.9720195E+05   9.3358466E+06
   6.9718579E+05   9.3358467E+06
   6.9715782E+05   9.3358597E+06
   6.9714284E+05   9.3358899E+06
   6.9711385E+05   9.3359169E+06
   6.9708802E+05   9.3359256E+06
   6.9706114E+05   9.3359407E+06
   6.9705369E+05   9.3359687E+06
   6.9704195E+05   9.3360010E+06
   6.9701509E+05   9.3360226E+06
   6.9699255E+05   9.3360464E+06
   6.9697217E+05   9.3360744E+06
   6.9696473E+05   9.3361067E+06
   6.9696266E+05   9.3361304E+06
   6.9697240E+05   9.3361454E+06
   6.9700580E+05   9.3361475E+06
L019
      38   2
   7.0426228E+05   9.3414012E+06
   7.0431932E+05   9.3413849E+06
   7.0437951E+05   9.3413438E+06
   7.0444397E+05   9.3412887E+06
   7.0449121E+05   9.3412412E+06
   7.0450172E+05   9.3411637E+06
   7.0447369E+05   9.3411573E+06
   7.0443702E+05   9.3411435E+06
   7.0441539E+05   9.3411188E+06
   7.0440123E+05   9.3410736E+06
   7.0439128E+05   9.3409984E+06
   7.0438897E+05   9.3409510E+06
   7.0438662E+05   9.3408919E+06
   7.0437571E+05   9.3408521E+06
   7.0435299E+05   9.3408220E+06
   7.0433032E+05   9.3408092E+06
   7.0427325E+05   9.3408169E+06
   7.0423665E+05   9.3408246E+06
   7.0420766E+05   9.3408559E+06
   7.0417338E+05   9.3409119E+06
   7.0413369E+05   9.3409626E+06
   7.0409506E+05   9.3410090E+06
   7.0405638E+05   9.3410404E+06
   7.0402305E+05   9.3410609E+06
   7.0398212E+05   9.3410621E+06
   7.0393800E+05   9.3410784E+06
   7.0393163E+05   9.3411064E+06
   7.0389301E+05   9.3411539E+06
   7.0385430E+05   9.3411777E+06
   7.0384040E+05   9.3412068E+06
   7.0383946E+05   9.3412498E+06
   7.0386875E+05   9.3413100E+06
   7.0390880E+05   9.3413680E+06
   7.0396715E+05   9.3414194E+06
   7.0400278E+05   9.3414430E+06
   7.0405130E+05   9.3414557E+06
   7.0413315E+05   9.3414458E+06
   7.0426228E+05   9.3414012E+06
L020
      63   2
   6.9189901E+05   9.3273918E+06
   6.9191304E+05   9.3274014E+06
   6.9195934E+05   9.3273970E+06
   6.9200555E+05   9.3273645E+06
   6.9206677E+05   9.3273138E+06
   6.9209035E+05   9.3272782E+06
   6.9213756E+05   9.3272210E+06
   6.9218052E+05   9.3271843E+06
   6.9222022E+05   9.3271390E+06
   6.9225886E+05   9.3270969E+06
   6.9227922E+05   9.3270635E+06
   6.9232536E+05   9.3270106E+06
   6.9239732E+05   9.3269501E+06
   6.9244031E+05   9.3269220E+06
   6.9248546E+05   9.3268950E+06
   6.9251336E+05   9.3268637E+06
   6.9252513E+05   9.3268410E+06
   6.9256166E+05   9.3268108E+06
   6.9260465E+05   9.3267838E+06
   6.9264983E+05   9.3267675E+06
   6.9266156E+05   9.3267298E+06
   6.9263230E+05   9.3266761E+06
   6.9258682E+05   9.3265998E+06
   6.9255560E+05   9.3266021E+06
   6.9253933E+05   9.3265688E+06
   6.9250679E+05   9.3264947E+06
   6.9247201E+05   9.3263990E+06
   6.9243938E+05   9.3262990E+06
   6.9241550E+05   9.3262399E+06
   6.9238735E+05   9.3261949E+06
   6.9234510E+05   9.3261186E+06
   6.9230179E+05   9.3260445E+06
   6.9226927E+05   9.3259811E+06
   6.9224444E+05   9.3259629E+06
   6.9220671E+05   9.3259523E+06
   6.9217009E+05   9.3259502E+06
   6.9212597E+05   9.3259611E+06
   6.9208726E+05   9.3259796E+06
   6.9204212E+05   9.3260098E+06
   6.9199594E+05   9.3260509E+06
   6.9189613E+05   9.3261588E+06
   6.9182847E+05   9.3262192E+06
   6.9175439E+05   9.3262905E+06
   6.9170395E+05   9.3263455E+06
   6.9162667E+05   9.3264265E+06
   6.9157727E+05   9.3264718E+06
   6.9151603E+05   9.3265194E+06
   6.9145377E+05   9.3265830E+06
   6.9140227E+05   9.3266424E+06
   6.9137116E+05   9.3266823E+06
   6.9135083E+05   9.3267222E+06
   6.9134127E+05   9.3267642E+06
   6.9134141E+05   9.3268093E+06
   6.9135234E+05   9.3268588E+06
   6.9136106E+05   9.3268921E+06
   6.9137843E+05   9.3269330E+06
   6.9141734E+05   9.3269780E+06
   6.9147677E+05   9.3270370E+06
   6.9154698E+05   9.3271013E+06
   6.9164955E+05   9.3271828E+06
   6.9170249E+05   9.3272343E+06
   6.9177594E+05   9.3273007E+06
   6.9189901E+05   9.3273918E+06
L021
     114   2
   6.9739816E+05   9.3262129E+06
   6.9738118E+05   9.3262087E+06
   6.9736660E+05   9.3261985E+06
   6.9734607E+05   9.3261771E+06
   6.9732823E+05   9.3261556E+06
   6.9731630E+05   9.3261320E+06
   6.9730814E+05   9.3261051E+06
   6.9729509E+05   9.3260680E+06
   6.9729824E+05   9.3260433E+06
   6.9729111E+05   9.3260051E+06
   6.9728236E+05   9.3259648E+06
   6.9727526E+05   9.3259320E+06
   6.9726327E+05   9.3258911E+06
   6.9725723E+05   9.3258556E+06
   6.9724257E+05   9.3258175E+06
   6.9722850E+05   9.3257966E+06
   6.9721282E+05   9.3257778E+06
   6.9718855E+05   9.3257676E+06
   6.9714062E+05   9.3257667E+06
   6.9711641E+05   9.3257733E+06
   6.9709921E+05   9.3257814E+06
   6.9708849E+05   9.3257986E+06
   6.9708857E+05   9.3258218E+06
   6.9708917E+05   9.3258406E+06
   6.9709244E+05   9.3258535E+06
   6.9708550E+05   9.3258713E+06
   6.9708663E+05   9.3258869E+06
   6.9709960E+05   9.3259013E+06
   6.9710451E+05   9.3259202E+06
   6.9710728E+05   9.3259422E+06
   6.9709335E+05   9.3259665E+06
   6.9708318E+05   9.3259843E+06
   6.9707191E+05   9.3259961E+06
   6.9705527E+05   9.3260102E+06
   6.9703481E+05   9.3260124E+06
   6.9701219E+05   9.3260108E+06
   6.9700353E+05   9.3259985E+06
   6.9700509E+05   9.3259807E+06
   6.9700502E+05   9.3259592E+06
   6.9699256E+05   9.3259361E+06
   6.9696990E+05   9.3259254E+06
   6.9693975E+05   9.3259272E+06
   6.9691771E+05   9.3259375E+06
   6.9690968E+05   9.3259531E+06
   6.9690761E+05   9.3259784E+06
   6.9691359E+05   9.3259961E+06
   6.9691800E+05   9.3260273E+06
   6.9691376E+05   9.3260472E+06
   6.9691607E+05   9.3260940E+06
   6.9691946E+05   9.3261430E+06
   6.9691795E+05   9.3261742E+06
   6.9690888E+05   9.3262006E+06
   6.9689064E+05   9.3262216E+06
   6.9688644E+05   9.3262523E+06
   6.9688869E+05   9.3262845E+06
   6.9690494E+05   9.3263103E+06
   6.9691363E+05   9.3263345E+06
   6.9691723E+05   9.3263654E+06
   6.9691273E+05   9.3263880E+06
   6.9690117E+05   9.3263943E+06
   6.9688851E+05   9.3263913E+06
   6.9688228E+05   9.3263798E+06
   6.9686608E+05   9.3263677E+06
   6.9684455E+05   9.3263683E+06
   6.9683463E+05   9.3263818E+06
   6.9682879E+05   9.3264088E+06
   6.9683429E+05   9.3264421E+06
   6.9684488E+05   9.3264706E+06
   6.9684870E+05   9.3264870E+06
   6.9687087E+05   9.3265122E+06
   6.9689353E+05   9.3265255E+06
   6.9692590E+05   9.3265427E+06
   6.9695231E+05   9.3265496E+06
   6.9698251E+05   9.3265629E+06
   6.9699388E+05   9.3265817E+06
   6.9699290E+05   9.3266134E+06
   6.9699947E+05   9.3266457E+06
   6.9702216E+05   9.3266666E+06
   6.9704217E+05   9.3266940E+06
   6.9708906E+05   9.3267041E+06
   6.9712679E+05   9.3267163E+06
   6.9716239E+05   9.3267339E+06
   6.9718343E+05   9.3267446E+06
   6.9720233E+05   9.3267602E+06
   6.9721587E+05   9.3267833E+06
   6.9723641E+05   9.3268069E+06
   6.9726230E+05   9.3268181E+06
   6.9729245E+05   9.3268164E+06
   6.9730263E+05   9.3268018E+06
   6.9730359E+05   9.3267679E+06
   6.9730239E+05   9.3267302E+06
   6.9730717E+05   9.3267092E+06
   6.9732593E+05   9.3266807E+06
   6.9734685E+05   9.3266585E+06
   6.9737372E+05   9.3266402E+06
   6.9741947E+05   9.3266325E+06
   6.9746899E+05   9.3266264E+06
   6.9749698E+05   9.3266215E+06
   6.9753032E+05   9.3266074E+06
   6.9756094E+05   9.3265841E+06
   6.9757698E+05   9.3265502E+06
   6.9757954E+05   9.3265109E+06
   6.9757134E+05   9.3264733E+06
   6.9755562E+05   9.3264411E+06
   6.9754146E+05   9.3263954E+06
   6.9753057E+05   9.3263572E+06
   6.9752344E+05   9.3263180E+06
   6.9751846E+05   9.3262787E+06
   6.9751838E+05   9.3262529E+06
   6.9750483E+05   9.3262293E+06
   6.9749079E+05   9.3262159E+06
   6.9747140E+05   9.3262138E+06
   6.9744070E+05   9.3262139E+06
   6.9739816E+05   9.3262129E+06
L022
      16   2
   7.0279023E+05   9.3356980E+06
   7.0277348E+05   9.3356798E+06
   7.0275247E+05   9.3356788E+06
   7.0272988E+05   9.3356891E+06
   7.0271975E+05   9.3357203E+06
   7.0271015E+05   9.3357478E+06
   7.0271183E+05   9.3357687E+06
   7.0272751E+05   9.3357859E+06
   7.0274807E+05   9.3358127E+06
   7.0276266E+05   9.3358278E+06
   7.0277668E+05   9.3358320E+06
   7.0279657E+05   9.3358212E+06
   7.0281750E+05   9.3357980E+06
   7.0281631E+05   9.3357652E+06
   7.0280702E+05   9.3357254E+06
   7.0279023E+05   9.3356980E+06
L023
      20   2
   7.0446742E+05   9.3382441E+06
   7.0449756E+05   9.3382365E+06
   7.0451687E+05   9.3382138E+06
   7.0453505E+05   9.3381734E+06
   7.0452901E+05   9.3381395E+06
   7.0450680E+05   9.3381014E+06
   7.0448197E+05   9.3380848E+06
   7.0444802E+05   9.3380801E+06
   7.0442003E+05   9.3380861E+06
   7.0440768E+05   9.3380985E+06
   7.0440832E+05   9.3381270E+06
   7.0441271E+05   9.3381528E+06
   7.0439772E+05   9.3381798E+06
   7.0437671E+05   9.3381777E+06
   7.0434604E+05   9.3381886E+06
   7.0433209E+05   9.3382037E+06
   7.0433054E+05   9.3382225E+06
   7.0433813E+05   9.3382386E+06
   7.0436832E+05   9.3382455E+06
   7.0446742E+05   9.3382441E+06
L024
      10   2
   7.1844408E+05   9.3267762E+06
   7.1827595E+05   9.3274522E+06
   7.1810128E+05   9.3280683E+06
   7.1799532E+05   9.3284695E+06
   7.1804098E+05   9.3284800E+06
   7.1814073E+05   9.3281275E+06
   7.1844183E+05   9.3269645E+06
   7.1849951E+05   9.3267736E+06
   7.1844726E+05   9.3267599E+06
   7.1844408E+05   9.3267762E+06
L025
      26   2
   7.2094942E+05   9.3271158E+06
   7.2048482E+05   9.3270411E+06
   7.2044763E+05   9.3270501E+06
   7.2042935E+05   9.3271402E+06
   7.2043857E+05   9.3272497E+06
   7.2045536E+05   9.3272859E+06
   7.2047996E+05   9.3273171E+06
   7.2047424E+05   9.3273602E+06
   7.2045861E+05   9.3273710E+06
   7.2042936E+05   9.3274093E+06
   7.2038656E+05   9.3274907E+06
   7.2036721E+05   9.3275563E+06
   7.2037509E+05   9.3275671E+06
   7.2032139E+05   9.3276152E+06
   7.2007920E+05   9.3278187E+06
   7.1982232E+05   9.3280251E+06
   7.1955276E+05   9.3282443E+06
   7.1928615E+05   9.3284694E+06
   7.1896581E+05   9.3287348E+06
   7.1884369E+05   9.3288243E+06
   7.1883691E+05   9.3288439E+06
   7.1905670E+05   9.3286748E+06
   7.1940926E+05   9.3283819E+06
   7.1980384E+05   9.3280594E+06
   7.2035661E+05   9.3276053E+06
   7.2094942E+05   9.3271158E+06
L026
      30   2
   7.2099260E+05   9.3271371E+06
   7.2075328E+05   9.3273210E+06
   7.2046860E+05   9.3275569E+06
   7.2019514E+05   9.3277801E+06
   7.1994218E+05   9.3279855E+06
   7.1968922E+05   9.3281920E+06
   7.1944409E+05   9.3283954E+06
   7.1916085E+05   9.3286255E+06
   7.1895673E+05   9.3287945E+06
   7.1889422E+05   9.3288466E+06
   7.1886886E+05   9.3288761E+06
   7.1887087E+05   9.3288888E+06
   7.1888657E+05   9.3288966E+06
   7.1890505E+05   9.3288613E+06
   7.1896265E+05   9.3288072E+06
   7.1919806E+05   9.3286224E+06
   7.1942268E+05   9.3284347E+06
   7.1969612E+05   9.3282047E+06
   7.1999302E+05   9.3279589E+06
   7.2018935E+05   9.3278046E+06
   7.2041006E+05   9.3276207E+06
   7.2072160E+05   9.3273632E+06
   7.2082391E+05   9.3272811E+06
   7.2084227E+05   9.3272808E+06
   7.2088660E+05   9.3272804E+06
   7.2091298E+05   9.3272612E+06
   7.2093839E+05   9.3272457E+06
   7.2098374E+05   9.3271927E+06
   7.2101006E+05   9.3271559E+06
   7.2099260E+05   9.3271371E+06
L027
      22   2
   7.1864092E+05   9.3302379E+06
   7.1863103E+05   9.3302105E+06
   7.1860257E+05   9.3301969E+06
   7.1857808E+05   9.3301980E+06
   7.1855465E+05   9.3302196E+06
   7.1850771E+05   9.3302423E+06
   7.1847539E+05   9.3302444E+06
   7.1843729E+05   9.3302739E+06
   7.1839140E+05   9.3303151E+06
   7.1835918E+05   9.3303456E+06
   7.1831029E+05   9.3303702E+06
   7.1830063E+05   9.3304084E+06
   7.1830971E+05   9.3304808E+06
   7.1836358E+05   9.3304767E+06
   7.1843205E+05   9.3304481E+06
   7.1851715E+05   9.3304145E+06
   7.1861708E+05   9.3304161E+06
   7.1867486E+05   9.3304129E+06
   7.1867870E+05   9.3303904E+06
   7.1866678E+05   9.3303445E+06
   7.1864701E+05   9.3302956E+06
   7.1864092E+05   9.3302379E+06
L028
      48   2
   7.1973514E+05   9.3307682E+06
   7.1971922E+05   9.3307017E+06
   7.1966601E+05   9.3306158E+06
   7.1958936E+05   9.3305515E+06
   7.1951872E+05   9.3305224E+06
   7.1941878E+05   9.3305149E+06
   7.1933647E+05   9.3305113E+06
   7.1921695E+05   9.3305098E+06
   7.1908177E+05   9.3305122E+06
   7.1898000E+05   9.3305420E+06
   7.1893697E+05   9.3305617E+06
   7.1889391E+05   9.3305736E+06
   7.1884119E+05   9.3306247E+06
   7.1881399E+05   9.3306874E+06
   7.1879078E+05   9.3307697E+06
   7.1878902E+05   9.3308245E+06
   7.1878140E+05   9.3308852E+06
   7.1876200E+05   9.3309381E+06
   7.1873475E+05   9.3309872E+06
   7.1869192E+05   9.3310617E+06
   7.1866271E+05   9.3311107E+06
   7.1865499E+05   9.3311440E+06
   7.1867862E+05   9.3311772E+06
   7.1874543E+05   9.3312298E+06
   7.1879453E+05   9.3312609E+06
   7.1882007E+05   9.3312804E+06
   7.1886716E+05   9.3312998E+06
   7.1895156E+05   9.3313406E+06
   7.1897119E+05   9.3313523E+06
   7.1899626E+05   9.3313757E+06
   7.1902135E+05   9.3314069E+06
   7.1904051E+05   9.3314213E+06
   7.1905561E+05   9.3313982E+06
   7.1908290E+05   9.3313592E+06
   7.1912722E+05   9.3312891E+06
   7.1917278E+05   9.3312251E+06
   7.1918962E+05   9.3312081E+06
   7.1922318E+05   9.3312097E+06
   7.1928249E+05   9.3312227E+06
   7.1932562E+05   9.3312284E+06
   7.1933117E+05   9.3312052E+06
   7.1933142E+05   9.3310723E+06
   7.1932920E+05   9.3310009E+06
   7.1943482E+05   9.3309535E+06
   7.1962059E+05   9.3308530E+06
   7.1969493E+05   9.3308234E+06
   7.1973203E+05   9.3307890E+06
   7.1973514E+05   9.3307682E+06
L029
     145   2
   6.9274932E+05   9.3255252E+06
   6.9265836E+05   9.3255712E+06
   6.9265704E+05   9.3255794E+06
   6.9256671E+05   9.3256227E+06
   6.9248230E+05   9.3256628E+06
   6.9241131E+05   9.3256931E+06
   6.9237639E+05   9.3257185E+06
   6.9235225E+05   9.3257450E+06
   6.9233299E+05   9.3257843E+06
   6.9232195E+05   9.3258688E+06
   6.9233924E+05   9.3258865E+06
   6.9236628E+05   9.3259224E+06
   6.9238845E+05   9.3259525E+06
   6.9241497E+05   9.3259928E+06
   6.9243230E+05   9.3260239E+06
   6.9245560E+05   9.3260679E+06
   6.9247839E+05   9.3261206E+06
   6.9249086E+05   9.3261469E+06
   6.9250988E+05   9.3262012E+06
   6.9253485E+05   9.3262646E+06
   6.9256577E+05   9.3263323E+06
   6.9258587E+05   9.3263876E+06
   6.9259894E+05   9.3264344E+06
   6.9262446E+05   9.3264972E+06
   6.9264026E+05   9.3265564E+06
   6.9263549E+05   9.3265779E+06
   6.9261292E+05   9.3265936E+06
   6.9263295E+05   9.3266263E+06
   6.9265412E+05   9.3266779E+06
   6.9267729E+05   9.3266816E+06
   6.9270039E+05   9.3266654E+06
   6.9271547E+05   9.3266680E+06
   6.9274094E+05   9.3267158E+06
   6.9279232E+05   9.3267850E+06
   6.9284533E+05   9.3268591E+06
   6.9289833E+05   9.3269300E+06
   6.9294532E+05   9.3269739E+06
   6.9298960E+05   9.3270120E+06
   6.9304305E+05   9.3270527E+06
   6.9310682E+05   9.3271240E+06
   6.9315329E+05   9.3271739E+06
   6.9323053E+05   9.3272463E+06
   6.9327808E+05   9.3272962E+06
   6.9332670E+05   9.3273433E+06
   6.9336560E+05   9.3273814E+06
   6.9340402E+05   9.3274389E+06
   6.9344624E+05   9.3275087E+06
   6.9349497E+05   9.3275892E+06
   6.9358156E+05   9.3277223E+06
   6.9361894E+05   9.3277889E+06
   6.9362288E+05   9.3278416E+06
   6.9365433E+05   9.3279093E+06
   6.9368469E+05   9.3279722E+06
   6.9370634E+05   9.3280054E+06
   6.9371777E+05   9.3280431E+06
   6.9372815E+05   9.3280887E+06
   6.9374504E+05   9.3281506E+06
   6.9375160E+05   9.3281817E+06
   6.9376567E+05   9.3282011E+06
   6.9379863E+05   9.3282365E+06
   6.9382075E+05   9.3282482E+06
   6.9385689E+05   9.3282669E+06
   6.9387953E+05   9.3282728E+06
   6.9395706E+05   9.3282693E+06
   6.9400007E+05   9.3282460E+06
   6.9404469E+05   9.3282233E+06
   6.9409254E+05   9.3282000E+06
   6.9415005E+05   9.3281643E+06
   6.9418715E+05   9.3281475E+06
   6.9423553E+05   9.3281205E+06
   6.9427263E+05   9.3281026E+06
   6.9431348E+05   9.3280782E+06
   6.9436187E+05   9.3280555E+06
   6.9440543E+05   9.3280354E+06
   6.9443875E+05   9.3280170E+06
   6.9446188E+05   9.3280068E+06
   6.9448383E+05   9.3279690E+06
   6.9450955E+05   9.3279270E+06
   6.9451857E+05   9.3278871E+06
   6.9452649E+05   9.3278382E+06
   6.9453123E+05   9.3278053E+06
   6.9451602E+05   9.3277634E+06
   6.9450457E+05   9.3277220E+06
   6.9448829E+05   9.3276823E+06
   6.9447253E+05   9.3276404E+06
   6.9445350E+05   9.3275839E+06
   6.9443502E+05   9.3275313E+06
   6.9442248E+05   9.3274845E+06
   6.9440347E+05   9.3274340E+06
   6.9438501E+05   9.3273878E+06
   6.9437658E+05   9.3273620E+06
   6.9436571E+05   9.3273300E+06
   6.9436050E+05   9.3273005E+06
   6.9434747E+05   9.3272701E+06
   6.9433741E+05   9.3272400E+06
   6.9432436E+05   9.3271989E+06
   6.9430671E+05   9.3271538E+06
   6.9429610E+05   9.3271215E+06
   6.9428089E+05   9.3270799E+06
   6.9427299E+05   9.3270508E+06
   6.9425994E+05   9.3270124E+06
   6.9424419E+05   9.3269740E+06
   6.9423005E+05   9.3269291E+06
   6.9421512E+05   9.3268926E+06
   6.9420340E+05   9.3268469E+06
   6.9418572E+05   9.3267929E+06
   6.9417480E+05   9.3267467E+06
   6.9415526E+05   9.3266989E+06
   6.9414406E+05   9.3266513E+06
   6.9412881E+05   9.3265970E+06
   6.9410896E+05   9.3265379E+06
   6.9409294E+05   9.3264962E+06
   6.9408259E+05   9.3264610E+06
   6.9407064E+05   9.3264288E+06
   6.9406081E+05   9.3263866E+06
   6.9403659E+05   9.3263065E+06
   6.9401129E+05   9.3262273E+06
   6.9400065E+05   9.3261837E+06
   6.9397755E+05   9.3261171E+06
   6.9396312E+05   9.3260703E+06
   6.9394732E+05   9.3260120E+06
   6.9392340E+05   9.3259424E+06
   6.9390705E+05   9.3258817E+06
   6.9389263E+05   9.3258368E+06
   6.9386826E+05   9.3257947E+06
   6.9385253E+05   9.3257587E+06
   6.9383735E+05   9.3257291E+06
   6.9381355E+05   9.3256953E+06
   6.9378520E+05   9.3256715E+06
   6.9374553E+05   9.3256415E+06
   6.9363568E+05   9.3256426E+06
   6.9354494E+05   9.3256440E+06
   6.9345421E+05   9.3256438E+06
   6.9334753E+05   9.3256255E+06
   6.9326454E+05   9.3256067E+06
   6.9321170E+05   9.3255856E+06
   6.9316479E+05   9.3255661E+06
   6.9310278E+05   9.3255416E+06
   6.9303674E+05   9.3255173E+06
   6.9298309E+05   9.3254973E+06
   6.9287916E+05   9.3254966E+06
   6.9282371E+05   9.3255000E+06
   6.9277425E+05   9.3255260E+06
   6.9274948E+05   9.3255266E+06
   6.9274932E+05   9.3255252E+06
L030
      15   2
   6.9774220E+05   9.3245100E+06
   6.9774388E+05   9.3245153E+06
   6.9775778E+05   9.3245334E+06
   6.9779588E+05   9.3245557E+06
   6.9792829E+05   9.3246060E+06
   6.9802196E+05   9.3246409E+06
   6.9811795E+05   9.3246765E+06
   6.9811823E+05   9.3246579E+06
   6.9806472E+05   9.3246385E+06
   6.9793429E+05   9.3245902E+06
   6.9779449E+05   9.3245429E+06
   6.9776229E+05   9.3245260E+06
   6.9775679E+05   9.3245107E+06
   6.9774476E+05   9.3245105E+06
   6.9774220E+05   9.3245100E+06
