*
* Deltares, Delft3D-RGFGRID Version 4.18.01.18383, Sep  7 2011, 14:23:22
* File creation date: 2026-02-02, 11:09:55
*
Coordinate System = Cartesian
      77      38
 0 0 0
 ETA=    1   0.00000000000000000E+00   0.00000000000000000E+00   0.00000000000000000E+00   0.00000000000000000E+00   0.00000000000000000E+00
             0.00000000000000000E+00   0.00000000000000000E+00   0.00000000000000000E+00   0.00000000000000000E+00   0.00000000000000000E+00
             0.00000000000000000E+00   0.00000000000000000E+00   0.00000000000000000E+00   0.00000000000000000E+00   0.00000000000000000E+00
             0.00000000000000000E+00   0.00000000000000000E+00   0.00000000000000000E+00   0.00000000000000000E+00   0.00000000000000000E+00
             0.00000000000000000E+00   0.00000000000000000E+00   0.00000000000000000E+00   7.02462912999999942E+05   7.02556662999999942E+05
             7.02650412999999942E+05   7.02744162999999942E+05   7.02837912999999942E+05   7.02931662999999942E+05   7.03025412999999942E+05
             7.03119162999999942E+05   7.03212912999999942E+05   7.03306662999999942E+05   7.03400412999999942E+05   7.03494162999999942E+05
             7.03587912999999942E+05   7.03681662999999942E+05   7.03775412999999942E+05   7.03869162999999942E+05   7.03962912999999942E+05
             7.04056662999999942E+05   7.04150412999999942E+05   0.00000000000000000E+00   0.00000000000000000E+00   0.00000000000000000E+00
             0.00000000000000000E+00   0.00000000000000000E+00   0.00000000000000000E+00   0.00000000000000000E+00   0.00000000000000000E+00
             0.00000000000000000E+00   0.00000000000000000E+00   0.00000000000000000E+00   0.00000000000000000E+00   0.00000000000000000E+00
             0.00000000000000000E+00   0.00000000000000000E+00   0.00000000000000000E+00   0.00000000000000000E+00   0.00000000000000000E+00
             0.00000000000000000E+00   0.00000000000000000E+00   0.00000000000000000E+00   0.00000000000000000E+00   0.00000000000000000E+00
             0.00000000000000000E+00   0.00000000000000000E+00   0.00000000000000000E+00   0.00000000000000000E+00   0.00000000000000000E+00
             0.00000000000000000E+00   0.00000000000000000E+00   0.00000000000000000E+00   0.00000000000000000E+00   0.00000000000000000E+00
             0.00000000000000000E+00   0.00000000000000000E+00
 ETA=    2   0.00000000000000000E+00   0.00000000000000000E+00   0.00000000000000000E+00   0.00000000000000000E+00   0.00000000000000000E+00
             0.00000000000000000E+00   0.00000000000000000E+00   0.00000000000000000E+00   0.00000000000000000E+00   0.00000000000000000E+00
             0.00000000000000000E+00   0.00000000000000000E+00   0.00000000000000000E+00   0.00000000000000000E+00   0.00000000000000000E+00
             0.00000000000000000E+00   0.00000000000000000E+00   0.00000000000000000E+00   0.00000000000000000E+00   0.00000000000000000E+00
             0.00000000000000000E+00   0.00000000000000000E+00   7.02369162999999942E+05   7.02462912999999942E+05   7.02556662999999942E+05
             7.02650412999999942E+05   7.02744162999999942E+05   7.02837912999999942E+05   7.02931662999999942E+05   7.03025412999999942E+05
             7.03119162999999942E+05   7.03212912999999942E+05   7.03306662999999942E+05   7.03400412999999942E+05   7.03494162999999942E+05
             7.03587912999999942E+05   7.03681662999999942E+05   7.03775412999999942E+05   7.03869162999999942E+05   7.03962912999999942E+05
             7.04056662999999942E+05   7.04150412999999942E+05   7.04244162999999942E+05   7.04337912999999942E+05   7.04431662999999942E+05
             7.04525412999999942E+05   7.04619162999999942E+05   0.00000000000000000E+00   0.00000000000000000E+00   0.00000000000000000E+00
             0.00000000000000000E+00   0.00000000000000000E+00   0.00000000000000000E+00   0.00000000000000000E+00   0.00000000000000000E+00
             0.00000000000000000E+00   0.00000000000000000E+00   0.00000000000000000E+00   0.00000000000000000E+00   0.00000000000000000E+00
             0.00000000000000000E+00   0.00000000000000000E+00   0.00000000000000000E+00   0.00000000000000000E+00   0.00000000000000000E+00
             0.00000000000000000E+00   0.00000000000000000E+00   0.00000000000000000E+00   0.00000000000000000E+00   0.00000000000000000E+00
             0.00000000000000000E+00   0.00000000000000000E+00   0.00000000000000000E+00   0.00000000000000000E+00   0.00000000000000000E+00
             0.00000000000000000E+00   0.00000000000000000E+00
 ETA=    3   7.00306662999999942E+05   7.00400412999999942E+05   7.00494162999999942E+05   7.00587912999999942E+05   7.00681662999999942E+05
             7.00775412999999942E+05   7.00869162999999942E+05   7.00962912999999942E+05   7.01056662999999942E+05   0.00000000000000000E+00
             0.00000000000000000E+00   0.00000000000000000E+00   0.00000000000000000E+00   0.00000000000000000E+00   0.00000000000000000E+00
             0.00000000000000000E+00   0.00000000000000000E+00   0.00000000000000000E+00   0.00000000000000000E+00   0.00000000000000000E+00
             0.00000000000000000E+00   0.00000000000000000E+00   7.02369162999999942E+05   7.02462912999999942E+05   7.02556662999999942E+05
             7.02650412999999942E+05   7.02744162999999942E+05   7.02837912999999942E+05   7.02931662999999942E+05   7.03025412999999942E+05
             7.03119162999999942E+05   7.03212912999999942E+05   7.03306662999999942E+05   7.03400412999999942E+05   7.03494162999999942E+05
             7.03587912999999942E+05   7.03681662999999942E+05   7.03775412999999942E+05   7.03869162999999942E+05   7.03962912999999942E+05
             7.04056662999999942E+05   7.04150412999999942E+05   7.04244162999999942E+05   7.04337912999999942E+05   7.04431662999999942E+05
             7.04525412999999942E+05   7.04619162999999942E+05   7.04712912999999942E+05   7.04806662999999942E+05   7.04900412999999942E+05
             7.04994162999999942E+05   0.00000000000000000E+00   0.00000000000000000E+00   0.00000000000000000E+00   0.00000000000000000E+00
             0.00000000000000000E+00   0.00000000000000000E+00   0.00000000000000000E+00   0.00000000000000000E+00   0.00000000000000000E+00
             0.00000000000000000E+00   0.00000000000000000E+00   0.00000000000000000E+00   0.00000000000000000E+00   0.00000000000000000E+00
             0.00000000000000000E+00   0.00000000000000000E+00   0.00000000000000000E+00   0.00000000000000000E+00   0.00000000000000000E+00
             0.00000000000000000E+00   0.00000000000000000E+00   0.00000000000000000E+00   0.00000000000000000E+00   0.00000000000000000E+00
             0.00000000000000000E+00   0.00000000000000000E+00
 ETA=    4   7.00306662999999942E+05   7.00400412999999942E+05   7.00494162999999942E+05   7.00587912999999942E+05   7.00681662999999942E+05
             7.00775412999999942E+05   7.00869162999999942E+05   7.00962912999999942E+05   7.01056662999999942E+05   0.00000000000000000E+00
             0.00000000000000000E+00   0.00000000000000000E+00   0.00000000000000000E+00   0.00000000000000000E+00   0.00000000000000000E+00
             0.00000000000000000E+00   0.00000000000000000E+00   0.00000000000000000E+00   0.00000000000000000E+00   0.00000000000000000E+00
             0.00000000000000000E+00   7.02275412999999942E+05   7.02369162999999942E+05   7.02462912999999942E+05   7.02556662999999942E+05
             7.02650412999999942E+05   7.02744162999999942E+05   7.02837912999999942E+05   7.02931662999999942E+05   7.03025412999999942E+05
             7.03119162999999942E+05   7.03212912999999942E+05   7.03306662999999942E+05   7.03400412999999942E+05   7.03494162999999942E+05
             7.03587912999999942E+05   7.03681662999999942E+05   7.03775412999999942E+05   7.03869162999999942E+05   7.03962912999999942E+05
             7.04056662999999942E+05   7.04150412999999942E+05   7.04244162999999942E+05   7.04337912999999942E+05   7.04431662999999942E+05
             7.04525412999999942E+05   7.04619162999999942E+05   7.04712912999999942E+05   7.04806662999999942E+05   7.04900412999999942E+05
             7.04994162999999942E+05   7.05087912999999942E+05   7.05181662999999942E+05   0.00000000000000000E+00   0.00000000000000000E+00
             0.00000000000000000E+00   0.00000000000000000E+00   0.00000000000000000E+00   0.00000000000000000E+00   0.00000000000000000E+00
             0.00000000000000000E+00   0.00000000000000000E+00   0.00000000000000000E+00   0.00000000000000000E+00   0.00000000000000000E+00
             0.00000000000000000E+00   0.00000000000000000E+00   0.00000000000000000E+00   0.00000000000000000E+00   0.00000000000000000E+00
             0.00000000000000000E+00   0.00000000000000000E+00   0.00000000000000000E+00   0.00000000000000000E+00   0.00000000000000000E+00
             0.00000000000000000E+00   0.00000000000000000E+00
 ETA=    5   7.00306662999999942E+05   7.00400412999999942E+05   7.00494162999999942E+05   7.00587912999999942E+05   7.00681662999999942E+05
             7.00775412999999942E+05   7.00869162999999942E+05   7.00962912999999942E+05   7.01056662999999942E+05   0.00000000000000000E+00
             0.00000000000000000E+00   0.00000000000000000E+00   0.00000000000000000E+00   0.00000000000000000E+00   0.00000000000000000E+00
             0.00000000000000000E+00   0.00000000000000000E+00   0.00000000000000000E+00   0.00000000000000000E+00   0.00000000000000000E+00
             0.00000000000000000E+00   7.02275412999999942E+05   7.02369162999999942E+05   7.02462912999999942E+05   7.02556662999999942E+05
             7.02650412999999942E+05   7.02744162999999942E+05   7.02837912999999942E+05   7.02931662999999942E+05   7.03025412999999942E+05
             7.03119162999999942E+05   7.03212912999999942E+05   7.03306662999999942E+05   7.03400412999999942E+05   7.03494162999999942E+05
             7.03587912999999942E+05   7.03681662999999942E+05   7.03775412999999942E+05   7.03869162999999942E+05   7.03962912999999942E+05
             7.04056662999999942E+05   7.04150412999999942E+05   7.04244162999999942E+05   7.04337912999999942E+05   7.04431662999999942E+05
             7.04525412999999942E+05   7.04619162999999942E+05   7.04712912999999942E+05   7.04806662999999942E+05   7.04900412999999942E+05
             7.04994162999999942E+05   7.05087912999999942E+05   7.05181662999999942E+05   7.05275412999999942E+05   0.00000000000000000E+00
             0.00000000000000000E+00   0.00000000000000000E+00   0.00000000000000000E+00   0.00000000000000000E+00   0.00000000000000000E+00
             0.00000000000000000E+00   0.00000000000000000E+00   0.00000000000000000E+00   0.00000000000000000E+00   0.00000000000000000E+00
             0.00000000000000000E+00   0.00000000000000000E+00   0.00000000000000000E+00   0.00000000000000000E+00   0.00000000000000000E+00
             0.00000000000000000E+00   0.00000000000000000E+00   0.00000000000000000E+00   0.00000000000000000E+00   0.00000000000000000E+00
             0.00000000000000000E+00   0.00000000000000000E+00
 ETA=    6   7.00306662999999942E+05   7.00400412999999942E+05   7.00494162999999942E+05   7.00587912999999942E+05   7.00681662999999942E+05
             7.00775412999999942E+05   7.00869162999999942E+05   7.00962912999999942E+05   7.01056662999999942E+05   0.00000000000000000E+00
             0.00000000000000000E+00   0.00000000000000000E+00   0.00000000000000000E+00   0.00000000000000000E+00   0.00000000000000000E+00
             0.00000000000000000E+00   0.00000000000000000E+00   0.00000000000000000E+00   0.00000000000000000E+00   0.00000000000000000E+00
             0.00000000000000000E+00   7.02275412999999942E+05   7.02369162999999942E+05   7.02462912999999942E+05   7.02556662999999942E+05
             7.02650412999999942E+05   7.02744162999999942E+05   7.02837912999999942E+05   7.02931662999999942E+05   7.03025412999999942E+05
             7.03119162999999942E+05   7.03212912999999942E+05   7.03306662999999942E+05   7.03400412999999942E+05   7.03494162999999942E+05
             7.03587912999999942E+05   7.03681662999999942E+05   7.03775412999999942E+05   7.03869162999999942E+05   7.03962912999999942E+05
             7.04056662999999942E+05   7.04150412999999942E+05   7.04244162999999942E+05   7.04337912999999942E+05   7.04431662999999942E+05
             7.04525412999999942E+05   7.04619162999999942E+05   7.04712912999999942E+05   7.04806662999999942E+05   7.04900412999999942E+05
             7.04994162999999942E+05   7.05087912999999942E+05   7.05181662999999942E+05   7.05275412999999942E+05   7.05369162999999942E+05
             7.05462912999999942E+05   7.05556662999999942E+05   0.00000000000000000E+00   0.00000000000000000E+00   0.00000000000000000E+00
             0.00000000000000000E+00   0.00000000000000000E+00   0.00000000000000000E+00   0.00000000000000000E+00   0.00000000000000000E+00
             0.00000000000000000E+00   0.00000000000000000E+00   0.00000000000000000E+00   0.00000000000000000E+00   0.00000000000000000E+00
             0.00000000000000000E+00   0.00000000000000000E+00   0.00000000000000000E+00   0.00000000000000000E+00   0.00000000000000000E+00
             0.00000000000000000E+00   0.00000000000000000E+00
 ETA=    7   7.00306662999999942E+05   7.00400412999999942E+05   7.00494162999999942E+05   7.00587912999999942E+05   7.00681662999999942E+05
             7.00775412999999942E+05   7.00869162999999942E+05   7.00962912999999942E+05   7.01056662999999942E+05   0.00000000000000000E+00
             0.00000000000000000E+00   0.00000000000000000E+00   0.00000000000000000E+00   0.00000000000000000E+00   0.00000000000000000E+00
             0.00000000000000000E+00   0.00000000000000000E+00   0.00000000000000000E+00   0.00000000000000000E+00   7.02087912999999942E+05
             7.02181662999999942E+05   7.02275412999999942E+05   7.02369162999999942E+05   7.02462912999999942E+05   7.02556662999999942E+05
             7.02650412999999942E+05   7.02744162999999942E+05   7.02837912999999942E+05   7.02931662999999942E+05   7.03025412999999942E+05
             7.03119162999999942E+05   7.03212912999999942E+05   7.03306662999999942E+05   7.03400412999999942E+05   7.03494162999999942E+05
             7.03587912999999942E+05   7.03681662999999942E+05   7.03775412999999942E+05   7.03869162999999942E+05   7.03962912999999942E+05
             7.04056662999999942E+05   7.04150412999999942E+05   7.04244162999999942E+05   7.04337912999999942E+05   7.04431662999999942E+05
             7.04525412999999942E+05   7.04619162999999942E+05   7.04712912999999942E+05   7.04806662999999942E+05   7.04900412999999942E+05
             7.04994162999999942E+05   7.05087912999999942E+05   7.05181662999999942E+05   7.05275412999999942E+05   7.05369162999999942E+05
             7.05462912999999942E+05   7.05556662999999942E+05   7.05650412999999942E+05   0.00000000000000000E+00   0.00000000000000000E+00
             0.00000000000000000E+00   0.00000000000000000E+00   0.00000000000000000E+00   0.00000000000000000E+00   0.00000000000000000E+00
             0.00000000000000000E+00   0.00000000000000000E+00   0.00000000000000000E+00   0.00000000000000000E+00   0.00000000000000000E+00
             0.00000000000000000E+00   0.00000000000000000E+00   0.00000000000000000E+00   0.00000000000000000E+00   0.00000000000000000E+00
             0.00000000000000000E+00   0.00000000000000000E+00
 ETA=    8   7.00306662999999942E+05   7.00400412999999942E+05   7.00494162999999942E+05   7.00587912999999942E+05   7.00681662999999942E+05
             7.00775412999999942E+05   7.00869162999999942E+05   7.00962912999999942E+05   7.01056662999999942E+05   0.00000000000000000E+00
             0.00000000000000000E+00   0.00000000000000000E+00   7.01431662999999942E+05   7.01525412999999942E+05   7.01619162999999942E+05
             7.01712912999999942E+05   7.01806662999999942E+05   7.01900412999999942E+05   7.01994162999999942E+05   7.02087912999999942E+05
             7.02181662999999942E+05   7.02275412999999942E+05   7.02369162999999942E+05   7.02462912999999942E+05   7.02556662999999942E+05
             7.02650412999999942E+05   7.02744162999999942E+05   7.02837912999999942E+05   7.02931662999999942E+05   7.03025412999999942E+05
             7.03119162999999942E+05   7.03212912999999942E+05   7.03306662999999942E+05   7.03400412999999942E+05   7.03494162999999942E+05
             7.03587912999999942E+05   7.03681662999999942E+05   7.03775412999999942E+05   7.03869162999999942E+05   7.03962912999999942E+05
             7.04056662999999942E+05   7.04150412999999942E+05   7.04244162999999942E+05   7.04337912999999942E+05   7.04431662999999942E+05
             7.04525412999999942E+05   7.04619162999999942E+05   7.04712912999999942E+05   7.04806662999999942E+05   7.04900412999999942E+05
             7.04994162999999942E+05   7.05087912999999942E+05   7.05181662999999942E+05   7.05275412999999942E+05   7.05369162999999942E+05
             7.05462912999999942E+05   7.05556662999999942E+05   7.05650412999999942E+05   0.00000000000000000E+00   0.00000000000000000E+00
             0.00000000000000000E+00   0.00000000000000000E+00   0.00000000000000000E+00   0.00000000000000000E+00   0.00000000000000000E+00
             0.00000000000000000E+00   0.00000000000000000E+00   0.00000000000000000E+00   0.00000000000000000E+00   0.00000000000000000E+00
             0.00000000000000000E+00   0.00000000000000000E+00   0.00000000000000000E+00   0.00000000000000000E+00   0.00000000000000000E+00
             0.00000000000000000E+00   0.00000000000000000E+00
 ETA=    9   7.00306662999999942E+05   7.00400412999999942E+05   7.00494162999999942E+05   7.00587912999999942E+05   7.00681662999999942E+05
             7.00775412999999942E+05   7.00869162999999942E+05   7.00962912999999942E+05   7.01056662999999942E+05   7.01150412999999942E+05
             7.01244162999999942E+05   7.01337912999999942E+05   7.01431662999999942E+05   7.01525412999999942E+05   7.01619162999999942E+05
             7.01712912999999942E+05   7.01806662999999942E+05   7.01900412999999942E+05   7.01994162999999942E+05   7.02087912999999942E+05
             7.02181662999999942E+05   7.02275412999999942E+05   7.02369162999999942E+05   7.02462912999999942E+05   7.02556662999999942E+05
             7.02650412999999942E+05   7.02744162999999942E+05   7.02837912999999942E+05   7.02931662999999942E+05   7.03025412999999942E+05
             7.03119162999999942E+05   7.03212912999999942E+05   7.03306662999999942E+05   7.03400412999999942E+05   7.03494162999999942E+05
             7.03587912999999942E+05   7.03681662999999942E+05   7.03775412999999942E+05   7.03869162999999942E+05   7.03962912999999942E+05
             7.04056662999999942E+05   7.04150412999999942E+05   7.04244162999999942E+05   7.04337912999999942E+05   7.04431662999999942E+05
             7.04525412999999942E+05   7.04619162999999942E+05   7.04712912999999942E+05   7.04806662999999942E+05   7.04900412999999942E+05
             7.04994162999999942E+05   7.05087912999999942E+05   7.05181662999999942E+05   7.05275412999999942E+05   7.05369162999999942E+05
             7.05462912999999942E+05   7.05556662999999942E+05   7.05650412999999942E+05   0.00000000000000000E+00   0.00000000000000000E+00
             0.00000000000000000E+00   0.00000000000000000E+00   0.00000000000000000E+00   0.00000000000000000E+00   0.00000000000000000E+00
             0.00000000000000000E+00   0.00000000000000000E+00   0.00000000000000000E+00   0.00000000000000000E+00   0.00000000000000000E+00
             0.00000000000000000E+00   0.00000000000000000E+00   0.00000000000000000E+00   0.00000000000000000E+00   0.00000000000000000E+00
             0.00000000000000000E+00   0.00000000000000000E+00
 ETA=   10   7.00306662999999942E+05   7.00400412999999942E+05   7.00494162999999942E+05   7.00587912999999942E+05   7.00681662999999942E+05
             7.00775412999999942E+05   7.00869162999999942E+05   7.00962912999999942E+05   7.01056662999999942E+05   7.01150412999999942E+05
             7.01244162999999942E+05   7.01337912999999942E+05   7.01431662999999942E+05   7.01525412999999942E+05   7.01619162999999942E+05
             7.01712912999999942E+05   7.01806662999999942E+05   7.01900412999999942E+05   7.01994162999999942E+05   7.02087912999999942E+05
             7.02181662999999942E+05   7.02275412999999942E+05   7.02369162999999942E+05   7.02462912999999942E+05   7.02556662999999942E+05
             7.02650412999999942E+05   7.02744162999999942E+05   7.02837912999999942E+05   7.02931662999999942E+05   7.03025412999999942E+05
             7.03119162999999942E+05   7.03212912999999942E+05   7.03306662999999942E+05   7.03400412999999942E+05   7.03494162999999942E+05
             7.03587912999999942E+05   7.03681662999999942E+05   7.03775412999999942E+05   7.03869162999999942E+05   7.03962912999999942E+05
             7.04056662999999942E+05   7.04150412999999942E+05   7.04244162999999942E+05   7.04337912999999942E+05   7.04431662999999942E+05
             7.04525412999999942E+05   7.04619162999999942E+05   7.04712912999999942E+05   7.04806662999999942E+05   7.04900412999999942E+05
             7.04994162999999942E+05   7.05087912999999942E+05   7.05181662999999942E+05   7.05275412999999942E+05   0.00000000000000000E+00
             7.05462912999999942E+05   7.05556662999999942E+05   7.05650412999999942E+05   0.00000000000000000E+00   0.00000000000000000E+00
             0.00000000000000000E+00   7.06025412999999942E+05   7.06119162999999942E+05   7.06212912999999942E+05   0.00000000000000000E+00
             0.00000000000000000E+00   0.00000000000000000E+00   0.00000000000000000E+00   0.00000000000000000E+00   0.00000000000000000E+00
             0.00000000000000000E+00   0.00000000000000000E+00   0.00000000000000000E+00   0.00000000000000000E+00   0.00000000000000000E+00
             0.00000000000000000E+00   0.00000000000000000E+00
 ETA=   11   7.00306662999999942E+05   7.00400412999999942E+05   7.00494162999999942E+05   7.00587912999999942E+05   7.00681662999999942E+05
             7.00775412999999942E+05   7.00869162999999942E+05   7.00962912999999942E+05   7.01056662999999942E+05   7.01150412999999942E+05
             7.01244162999999942E+05   7.01337912999999942E+05   7.01431662999999942E+05   7.01525412999999942E+05   7.01619162999999942E+05
             7.01712912999999942E+05   7.01806662999999942E+05   7.01900412999999942E+05   7.01994162999999942E+05   7.02087912999999942E+05
             7.02181662999999942E+05   7.02275412999999942E+05   7.02369162999999942E+05   7.02462912999999942E+05   7.02556662999999942E+05
             7.02650412999999942E+05   7.02744162999999942E+05   7.02837912999999942E+05   7.02931662999999942E+05   7.03025412999999942E+05
             7.03119162999999942E+05   7.03212912999999942E+05   7.03306662999999942E+05   7.03400412999999942E+05   7.03494162999999942E+05
             7.03587912999999942E+05   7.03681662999999942E+05   7.03775412999999942E+05   7.03869162999999942E+05   7.03962912999999942E+05
             7.04056662999999942E+05   7.04150412999999942E+05   7.04244162999999942E+05   7.04337912999999942E+05   7.04431662999999942E+05
             7.04525412999999942E+05   7.04619162999999942E+05   7.04712912999999942E+05   7.04806662999999942E+05   7.04900412999999942E+05
             7.04994162999999942E+05   7.05087912999999942E+05   7.05181662999999942E+05   7.05275412999999942E+05   0.00000000000000000E+00
             0.00000000000000000E+00   0.00000000000000000E+00   0.00000000000000000E+00   0.00000000000000000E+00   0.00000000000000000E+00
             7.05931662999999942E+05   7.06025412999999942E+05   7.06119162999999942E+05   7.06212912999999942E+05   0.00000000000000000E+00
             0.00000000000000000E+00   0.00000000000000000E+00   0.00000000000000000E+00   0.00000000000000000E+00   0.00000000000000000E+00
             0.00000000000000000E+00   0.00000000000000000E+00   0.00000000000000000E+00   0.00000000000000000E+00   0.00000000000000000E+00
             0.00000000000000000E+00   0.00000000000000000E+00
 ETA=   12   7.00306662999999942E+05   7.00400412999999942E+05   7.00494162999999942E+05   7.00587912999999942E+05   7.00681662999999942E+05
             7.00775412999999942E+05   7.00869162999999942E+05   7.00962912999999942E+05   7.01056662999999942E+05   7.01150412999999942E+05
             7.01244162999999942E+05   7.01337912999999942E+05   7.01431662999999942E+05   7.01525412999999942E+05   7.01619162999999942E+05
             7.01712912999999942E+05   7.01806662999999942E+05   7.01900412999999942E+05   7.01994162999999942E+05   7.02087912999999942E+05
             7.02181662999999942E+05   7.02275412999999942E+05   7.02369162999999942E+05   7.02462912999999942E+05   7.02556662999999942E+05
             7.02650412999999942E+05   7.02744162999999942E+05   7.02837912999999942E+05   7.02931662999999942E+05   7.03025412999999942E+05
             7.03119162999999942E+05   7.03212912999999942E+05   7.03306662999999942E+05   7.03400412999999942E+05   7.03494162999999942E+05
             7.03587912999999942E+05   7.03681662999999942E+05   7.03775412999999942E+05   7.03869162999999942E+05   7.03962912999999942E+05
             7.04056662999999942E+05   7.04150412999999942E+05   7.04244162999999942E+05   7.04337912999999942E+05   7.04431662999999942E+05
             7.04525412999999942E+05   7.04619162999999942E+05   7.04712912999999942E+05   7.04806662999999942E+05   7.04900412999999942E+05
             7.04994162999999942E+05   7.05087912999999942E+05   7.05181662999999942E+05   7.05275412999999942E+05   0.00000000000000000E+00
             0.00000000000000000E+00   0.00000000000000000E+00   0.00000000000000000E+00   0.00000000000000000E+00   0.00000000000000000E+00
             7.05931662999999942E+05   7.06025412999999942E+05   7.06119162999999942E+05   7.06212912999999942E+05   0.00000000000000000E+00
             0.00000000000000000E+00   0.00000000000000000E+00   0.00000000000000000E+00   0.00000000000000000E+00   0.00000000000000000E+00
             0.00000000000000000E+00   0.00000000000000000E+00   0.00000000000000000E+00   0.00000000000000000E+00   0.00000000000000000E+00
             0.00000000000000000E+00   0.00000000000000000E+00
 ETA=   13   7.00306662999999942E+05   7.00400412999999942E+05   7.00494162999999942E+05   7.00587912999999942E+05   7.00681662999999942E+05
             7.00775412999999942E+05   7.00869162999999942E+05   7.00962912999999942E+05   7.01056662999999942E+05   7.01150412999999942E+05
             7.01244162999999942E+05   7.01337912999999942E+05   7.01431662999999942E+05   7.01525412999999942E+05   7.01619162999999942E+05
             7.01712912999999942E+05   7.01806662999999942E+05   7.01900412999999942E+05   7.01994162999999942E+05   7.02087912999999942E+05
             7.02181662999999942E+05   7.02275412999999942E+05   7.02369162999999942E+05   7.02462912999999942E+05   7.02556662999999942E+05
             7.02650412999999942E+05   7.02744162999999942E+05   7.02837912999999942E+05   7.02931662999999942E+05   7.03025412999999942E+05
             7.03119162999999942E+05   7.03212912999999942E+05   7.03306662999999942E+05   7.03400412999999942E+05   7.03494162999999942E+05
             7.03587912999999942E+05   7.03681662999999942E+05   7.03775412999999942E+05   7.03869162999999942E+05   7.03962912999999942E+05
             7.04056662999999942E+05   7.04150412999999942E+05   7.04244162999999942E+05   7.04337912999999942E+05   7.04431662999999942E+05
             7.04525412999999942E+05   7.04619162999999942E+05   7.04712912999999942E+05   7.04806662999999942E+05   7.04900412999999942E+05
             7.04994162999999942E+05   7.05087912999999942E+05   7.05181662999999942E+05   7.05275412999999942E+05   7.05369162999999942E+05
             0.00000000000000000E+00   7.05556662999999942E+05   7.05650412999999942E+05   7.05744162999999942E+05   7.05837912999999942E+05
             7.05931662999999942E+05   7.06025412999999942E+05   7.06119162999999942E+05   7.06212912999999942E+05   7.06306662999999942E+05
             7.06400412999999942E+05   7.06494162999999942E+05   0.00000000000000000E+00   0.00000000000000000E+00   0.00000000000000000E+00
             0.00000000000000000E+00   0.00000000000000000E+00   0.00000000000000000E+00   0.00000000000000000E+00   0.00000000000000000E+00
             0.00000000000000000E+00   0.00000000000000000E+00
 ETA=   14   7.00306662999999942E+05   7.00400412999999942E+05   7.00494162999999942E+05   7.00587912999999942E+05   7.00681662999999942E+05
             7.00775412999999942E+05   7.00869162999999942E+05   7.00962912999999942E+05   7.01056662999999942E+05   7.01150412999999942E+05
             7.01244162999999942E+05   7.01337912999999942E+05   7.01431662999999942E+05   7.01525412999999942E+05   7.01619162999999942E+05
             7.01712912999999942E+05   7.01806662999999942E+05   7.01900412999999942E+05   7.01994162999999942E+05   7.02087912999999942E+05
             7.02181662999999942E+05   7.02275412999999942E+05   7.02369162999999942E+05   7.02462912999999942E+05   7.02556662999999942E+05
             7.02650412999999942E+05   7.02744162999999942E+05   7.02837912999999942E+05   7.02931662999999942E+05   7.03025412999999942E+05
             7.03119162999999942E+05   7.03212912999999942E+05   7.03306662999999942E+05   7.03400412999999942E+05   7.03494162999999942E+05
             7.03587912999999942E+05   7.03681662999999942E+05   7.03775412999999942E+05   7.03869162999999942E+05   7.03962912999999942E+05
             7.04056662999999942E+05   7.04150412999999942E+05   7.04244162999999942E+05   7.04337912999999942E+05   7.04431662999999942E+05
             7.04525412999999942E+05   7.04619162999999942E+05   7.04712912999999942E+05   7.04806662999999942E+05   7.04900412999999942E+05
             7.04994162999999942E+05   7.05087912999999942E+05   7.05181662999999942E+05   7.05275412999999942E+05   7.05369162999999942E+05
             7.05462912999999942E+05   7.05556662999999942E+05   7.05650412999999942E+05   7.05744162999999942E+05   7.05837912999999942E+05
             7.05931662999999942E+05   7.06025412999999942E+05   7.06119162999999942E+05   7.06212912999999942E+05   7.06306662999999942E+05
             7.06400412999999942E+05   7.06494162999999942E+05   7.06587912999999942E+05   0.00000000000000000E+00   0.00000000000000000E+00
             0.00000000000000000E+00   0.00000000000000000E+00   0.00000000000000000E+00   0.00000000000000000E+00   0.00000000000000000E+00
             0.00000000000000000E+00   0.00000000000000000E+00
 ETA=   15   7.00306662999999942E+05   7.00400412999999942E+05   7.00494162999999942E+05   7.00587912999999942E+05   7.00681662999999942E+05
             7.00775412999999942E+05   7.00869162999999942E+05   7.00962912999999942E+05   7.01056662999999942E+05   7.01150412999999942E+05
             7.01244162999999942E+05   7.01337912999999942E+05   7.01431662999999942E+05   7.01525412999999942E+05   7.01619162999999942E+05
             7.01712912999999942E+05   7.01806662999999942E+05   7.01900412999999942E+05   7.01994162999999942E+05   7.02087912999999942E+05
             7.02181662999999942E+05   7.02275412999999942E+05   7.02369162999999942E+05   7.02462912999999942E+05   7.02556662999999942E+05
             7.02650412999999942E+05   7.02744162999999942E+05   7.02837912999999942E+05   7.02931662999999942E+05   7.03025412999999942E+05
             7.03119162999999942E+05   7.03212912999999942E+05   7.03306662999999942E+05   7.03400412999999942E+05   7.03494162999999942E+05
             7.03587912999999942E+05   7.03681662999999942E+05   7.03775412999999942E+05   7.03869162999999942E+05   7.03962912999999942E+05
             7.04056662999999942E+05   7.04150412999999942E+05   7.04244162999999942E+05   7.04337912999999942E+05   7.04431662999999942E+05
             7.04525412999999942E+05   7.04619162999999942E+05   7.04712912999999942E+05   7.04806662999999942E+05   7.04900412999999942E+05
             7.04994162999999942E+05   7.05087912999999942E+05   7.05181662999999942E+05   7.05275412999999942E+05   7.05369162999999942E+05
             7.05462912999999942E+05   7.05556662999999942E+05   7.05650412999999942E+05   7.05744162999999942E+05   7.05837912999999942E+05
             7.05931662999999942E+05   7.06025412999999942E+05   7.06119162999999942E+05   7.06212912999999942E+05   7.06306662999999942E+05
             7.06400412999999942E+05   7.06494162999999942E+05   7.06587912999999942E+05   7.06681662999999942E+05   0.00000000000000000E+00
             0.00000000000000000E+00   0.00000000000000000E+00   0.00000000000000000E+00   0.00000000000000000E+00   0.00000000000000000E+00
             0.00000000000000000E+00   0.00000000000000000E+00
 ETA=   16   7.00306662999999942E+05   7.00400412999999942E+05   7.00494162999999942E+05   7.00587912999999942E+05   7.00681662999999942E+05
             7.00775412999999942E+05   7.00869162999999942E+05   7.00962912999999942E+05   7.01056662999999942E+05   7.01150412999999942E+05
             7.01244162999999942E+05   7.01337912999999942E+05   7.01431662999999942E+05   7.01525412999999942E+05   7.01619162999999942E+05
             7.01712912999999942E+05   7.01806662999999942E+05   7.01900412999999942E+05   7.01994162999999942E+05   7.02087912999999942E+05
             7.02181662999999942E+05   7.02275412999999942E+05   7.02369162999999942E+05   7.02462912999999942E+05   7.02556662999999942E+05
             7.02650412999999942E+05   7.02744162999999942E+05   7.02837912999999942E+05   7.02931662999999942E+05   7.03025412999999942E+05
             7.03119162999999942E+05   7.03212912999999942E+05   7.03306662999999942E+05   7.03400412999999942E+05   7.03494162999999942E+05
             7.03587912999999942E+05   7.03681662999999942E+05   7.03775412999999942E+05   7.03869162999999942E+05   7.03962912999999942E+05
             7.04056662999999942E+05   7.04150412999999942E+05   7.04244162999999942E+05   7.04337912999999942E+05   7.04431662999999942E+05
             7.04525412999999942E+05   7.04619162999999942E+05   7.04712912999999942E+05   7.04806662999999942E+05   7.04900412999999942E+05
             7.04994162999999942E+05   7.05087912999999942E+05   7.05181662999999942E+05   7.05275412999999942E+05   7.05369162999999942E+05
             7.05462912999999942E+05   7.05556662999999942E+05   7.05650412999999942E+05   7.05744162999999942E+05   7.05837912999999942E+05
             7.05931662999999942E+05   7.06025412999999942E+05   7.06119162999999942E+05   7.06212912999999942E+05   7.06306662999999942E+05
             7.06400412999999942E+05   7.06494162999999942E+05   7.06587912999999942E+05   7.06681662999999942E+05   7.06775412999999942E+05
             0.00000000000000000E+00   0.00000000000000000E+00   0.00000000000000000E+00   0.00000000000000000E+00   0.00000000000000000E+00
             0.00000000000000000E+00   0.00000000000000000E+00
 ETA=   17   7.00306662999999942E+05   7.00400412999999942E+05   7.00494162999999942E+05   7.00587912999999942E+05   7.00681662999999942E+05
             7.00775412999999942E+05   7.00869162999999942E+05   7.00962912999999942E+05   7.01056662999999942E+05   7.01150412999999942E+05
             7.01244162999999942E+05   7.01337912999999942E+05   7.01431662999999942E+05   7.01525412999999942E+05   7.01619162999999942E+05
             7.01712912999999942E+05   7.01806662999999942E+05   7.01900412999999942E+05   7.01994162999999942E+05   7.02087912999999942E+05
             7.02181662999999942E+05   7.02275412999999942E+05   7.02369162999999942E+05   7.02462912999999942E+05   7.02556662999999942E+05
             7.02650412999999942E+05   7.02744162999999942E+05   7.02837912999999942E+05   7.02931662999999942E+05   7.03025412999999942E+05
             7.03119162999999942E+05   7.03212912999999942E+05   7.03306662999999942E+05   7.03400412999999942E+05   7.03494162999999942E+05
             7.03587912999999942E+05   7.03681662999999942E+05   7.03775412999999942E+05   7.03869162999999942E+05   7.03962912999999942E+05
             7.04056662999999942E+05   7.04150412999999942E+05   7.04244162999999942E+05   7.04337912999999942E+05   7.04431662999999942E+05
             7.04525412999999942E+05   7.04619162999999942E+05   7.04712912999999942E+05   7.04806662999999942E+05   7.04900412999999942E+05
             7.04994162999999942E+05   7.05087912999999942E+05   7.05181662999999942E+05   7.05275412999999942E+05   7.05369162999999942E+05
             7.05462912999999942E+05   7.05556662999999942E+05   7.05650412999999942E+05   7.05744162999999942E+05   7.05837912999999942E+05
             7.05931662999999942E+05   7.06025412999999942E+05   7.06119162999999942E+05   7.06212912999999942E+05   7.06306662999999942E+05
             7.06400412999999942E+05   7.06494162999999942E+05   7.06587912999999942E+05   7.06681662999999942E+05   7.06775412999999942E+05
             7.06869162999999942E+05   7.06962912999999942E+05   7.07056662999999942E+05   0.00000000000000000E+00   0.00000000000000000E+00
             0.00000000000000000E+00   0.00000000000000000E+00
 ETA=   18   7.00306662999999942E+05   7.00400412999999942E+05   7.00494162999999942E+05   7.00587912999999942E+05   7.00681662999999942E+05
             7.00775412999999942E+05   7.00869162999999942E+05   7.00962912999999942E+05   7.01056662999999942E+05   7.01150412999999942E+05
             7.01244162999999942E+05   7.01337912999999942E+05   7.01431662999999942E+05   7.01525412999999942E+05   7.01619162999999942E+05
             7.01712912999999942E+05   7.01806662999999942E+05   7.01900412999999942E+05   7.01994162999999942E+05   7.02087912999999942E+05
             7.02181662999999942E+05   7.02275412999999942E+05   7.02369162999999942E+05   7.02462912999999942E+05   7.02556662999999942E+05
             7.02650412999999942E+05   7.02744162999999942E+05   7.02837912999999942E+05   7.02931662999999942E+05   7.03025412999999942E+05
             7.03119162999999942E+05   7.03212912999999942E+05   7.03306662999999942E+05   7.03400412999999942E+05   7.03494162999999942E+05
             7.03587912999999942E+05   7.03681662999999942E+05   7.03775412999999942E+05   7.03869162999999942E+05   7.03962912999999942E+05
             7.04056662999999942E+05   7.04150412999999942E+05   7.04244162999999942E+05   7.04337912999999942E+05   7.04431662999999942E+05
             7.04525412999999942E+05   7.04619162999999942E+05   7.04712912999999942E+05   7.04806662999999942E+05   7.04900412999999942E+05
             7.04994162999999942E+05   7.05087912999999942E+05   7.05181662999999942E+05   7.05275412999999942E+05   7.05369162999999942E+05
             7.05462912999999942E+05   7.05556662999999942E+05   7.05650412999999942E+05   7.05744162999999942E+05   7.05837912999999942E+05
             7.05931662999999942E+05   7.06025412999999942E+05   7.06119162999999942E+05   7.06212912999999942E+05   7.06306662999999942E+05
             7.06400412999999942E+05   7.06494162999999942E+05   7.06587912999999942E+05   7.06681662999999942E+05   7.06775412999999942E+05
             7.06869162999999942E+05   7.06962912999999942E+05   7.07056662999999942E+05   0.00000000000000000E+00   0.00000000000000000E+00
             0.00000000000000000E+00   0.00000000000000000E+00
 ETA=   19   7.00306662999999942E+05   7.00400412999999942E+05   7.00494162999999942E+05   7.00587912999999942E+05   7.00681662999999942E+05
             7.00775412999999942E+05   7.00869162999999942E+05   7.00962912999999942E+05   7.01056662999999942E+05   7.01150412999999942E+05
             7.01244162999999942E+05   7.01337912999999942E+05   7.01431662999999942E+05   7.01525412999999942E+05   7.01619162999999942E+05
             7.01712912999999942E+05   7.01806662999999942E+05   7.01900412999999942E+05   7.01994162999999942E+05   7.02087912999999942E+05
             7.02181662999999942E+05   7.02275412999999942E+05   7.02369162999999942E+05   7.02462912999999942E+05   7.02556662999999942E+05
             7.02650412999999942E+05   7.02744162999999942E+05   7.02837912999999942E+05   7.02931662999999942E+05   7.03025412999999942E+05
             7.03119162999999942E+05   7.03212912999999942E+05   7.03306662999999942E+05   7.03400412999999942E+05   7.03494162999999942E+05
             7.03587912999999942E+05   7.03681662999999942E+05   7.03775412999999942E+05   7.03869162999999942E+05   7.03962912999999942E+05
             7.04056662999999942E+05   7.04150412999999942E+05   7.04244162999999942E+05   7.04337912999999942E+05   7.04431662999999942E+05
             7.04525412999999942E+05   7.04619162999999942E+05   7.04712912999999942E+05   7.04806662999999942E+05   7.04900412999999942E+05
             7.04994162999999942E+05   7.05087912999999942E+05   7.05181662999999942E+05   7.05275412999999942E+05   7.05369162999999942E+05
             7.05462912999999942E+05   7.05556662999999942E+05   7.05650412999999942E+05   7.05744162999999942E+05   7.05837912999999942E+05
             7.05931662999999942E+05   7.06025412999999942E+05   7.06119162999999942E+05   7.06212912999999942E+05   7.06306662999999942E+05
             7.06400412999999942E+05   7.06494162999999942E+05   7.06587912999999942E+05   7.06681662999999942E+05   7.06775412999999942E+05
             7.06869162999999942E+05   7.06962912999999942E+05   7.07056662999999942E+05   0.00000000000000000E+00   0.00000000000000000E+00
             0.00000000000000000E+00   0.00000000000000000E+00
 ETA=   20   7.00306662999999942E+05   7.00400412999999942E+05   7.00494162999999942E+05   7.00587912999999942E+05   7.00681662999999942E+05
             7.00775412999999942E+05   7.00869162999999942E+05   7.00962912999999942E+05   7.01056662999999942E+05   7.01150412999999942E+05
             7.01244162999999942E+05   7.01337912999999942E+05   7.01431662999999942E+05   7.01525412999999942E+05   7.01619162999999942E+05
             7.01712912999999942E+05   7.01806662999999942E+05   7.01900412999999942E+05   7.01994162999999942E+05   7.02087912999999942E+05
             7.02181662999999942E+05   7.02275412999999942E+05   7.02369162999999942E+05   7.02462912999999942E+05   7.02556662999999942E+05
             7.02650412999999942E+05   7.02744162999999942E+05   7.02837912999999942E+05   7.02931662999999942E+05   7.03025412999999942E+05
             7.03119162999999942E+05   7.03212912999999942E+05   7.03306662999999942E+05   7.03400412999999942E+05   7.03494162999999942E+05
             7.03587912999999942E+05   7.03681662999999942E+05   7.03775412999999942E+05   7.03869162999999942E+05   7.03962912999999942E+05
             7.04056662999999942E+05   7.04150412999999942E+05   7.04244162999999942E+05   7.04337912999999942E+05   7.04431662999999942E+05
             7.04525412999999942E+05   7.04619162999999942E+05   7.04712912999999942E+05   7.04806662999999942E+05   7.04900412999999942E+05
             7.04994162999999942E+05   7.05087912999999942E+05   7.05181662999999942E+05   7.05275412999999942E+05   7.05369162999999942E+05
             7.05462912999999942E+05   7.05556662999999942E+05   7.05650412999999942E+05   7.05744162999999942E+05   7.05837912999999942E+05
             7.05931662999999942E+05   7.06025412999999942E+05   7.06119162999999942E+05   7.06212912999999942E+05   7.06306662999999942E+05
             7.06400412999999942E+05   7.06494162999999942E+05   7.06587912999999942E+05   7.06681662999999942E+05   7.06775412999999942E+05
             7.06869162999999942E+05   7.06962912999999942E+05   7.07056662999999942E+05   7.07150412999999942E+05   7.07244162999999942E+05
             0.00000000000000000E+00   0.00000000000000000E+00
 ETA=   21   7.00306662999999942E+05   7.00400412999999942E+05   7.00494162999999942E+05   7.00587912999999942E+05   7.00681662999999942E+05
             7.00775412999999942E+05   7.00869162999999942E+05   7.00962912999999942E+05   7.01056662999999942E+05   7.01150412999999942E+05
             7.01244162999999942E+05   7.01337912999999942E+05   7.01431662999999942E+05   7.01525412999999942E+05   7.01619162999999942E+05
             7.01712912999999942E+05   7.01806662999999942E+05   7.01900412999999942E+05   7.01994162999999942E+05   7.02087912999999942E+05
             7.02181662999999942E+05   7.02275412999999942E+05   7.02369162999999942E+05   7.02462912999999942E+05   7.02556662999999942E+05
             7.02650412999999942E+05   7.02744162999999942E+05   7.02837912999999942E+05   7.02931662999999942E+05   7.03025412999999942E+05
             7.03119162999999942E+05   7.03212912999999942E+05   7.03306662999999942E+05   7.03400412999999942E+05   7.03494162999999942E+05
             7.03587912999999942E+05   7.03681662999999942E+05   7.03775412999999942E+05   7.03869162999999942E+05   7.03962912999999942E+05
             7.04056662999999942E+05   7.04150412999999942E+05   7.04244162999999942E+05   7.04337912999999942E+05   7.04431662999999942E+05
             7.04525412999999942E+05   7.04619162999999942E+05   7.04712912999999942E+05   7.04806662999999942E+05   7.04900412999999942E+05
             7.04994162999999942E+05   7.05087912999999942E+05   7.05181662999999942E+05   7.05275412999999942E+05   7.05369162999999942E+05
             7.05462912999999942E+05   7.05556662999999942E+05   7.05650412999999942E+05   7.05744162999999942E+05   7.05837912999999942E+05
             7.05931662999999942E+05   7.06025412999999942E+05   7.06119162999999942E+05   7.06212912999999942E+05   7.06306662999999942E+05
             7.06400412999999942E+05   7.06494162999999942E+05   7.06587912999999942E+05   7.06681662999999942E+05   7.06775412999999942E+05
             7.06869162999999942E+05   7.06962912999999942E+05   7.07056662999999942E+05   7.07150412999999942E+05   7.07244162999999942E+05
             0.00000000000000000E+00   0.00000000000000000E+00
 ETA=   22   7.00306662999999942E+05   7.00400412999999942E+05   7.00494162999999942E+05   7.00587912999999942E+05   7.00681662999999942E+05
             7.00775412999999942E+05   7.00869162999999942E+05   7.00962912999999942E+05   7.01056662999999942E+05   7.01150412999999942E+05
             7.01244162999999942E+05   7.01337912999999942E+05   7.01431662999999942E+05   7.01525412999999942E+05   7.01619162999999942E+05
             7.01712912999999942E+05   7.01806662999999942E+05   7.01900412999999942E+05   7.01994162999999942E+05   7.02087912999999942E+05
             7.02181662999999942E+05   7.02275412999999942E+05   7.02369162999999942E+05   7.02462912999999942E+05   7.02556662999999942E+05
             7.02650412999999942E+05   7.02744162999999942E+05   7.02837912999999942E+05   7.02931662999999942E+05   7.03025412999999942E+05
             7.03119162999999942E+05   7.03212912999999942E+05   7.03306662999999942E+05   7.03400412999999942E+05   7.03494162999999942E+05
             7.03587912999999942E+05   7.03681662999999942E+05   7.03775412999999942E+05   7.03869162999999942E+05   7.03962912999999942E+05
             7.04056662999999942E+05   7.04150412999999942E+05   7.04244162999999942E+05   7.04337912999999942E+05   7.04431662999999942E+05
             7.04525412999999942E+05   7.04619162999999942E+05   7.04712912999999942E+05   7.04806662999999942E+05   7.04900412999999942E+05
             7.04994162999999942E+05   7.05087912999999942E+05   7.05181662999999942E+05   7.05275412999999942E+05   7.05369162999999942E+05
             7.05462912999999942E+05   7.05556662999999942E+05   7.05650412999999942E+05   7.05744162999999942E+05   7.05837912999999942E+05
             7.05931662999999942E+05   7.06025412999999942E+05   7.06119162999999942E+05   7.06212912999999942E+05   7.06306662999999942E+05
             7.06400412999999942E+05   7.06494162999999942E+05   7.06587912999999942E+05   7.06681662999999942E+05   7.06775412999999942E+05
             7.06869162999999942E+05   7.06962912999999942E+05   7.07056662999999942E+05   7.07150412999999942E+05   7.07244162999999942E+05
             0.00000000000000000E+00   0.00000000000000000E+00
 ETA=   23   7.00306662999999942E+05   7.00400412999999942E+05   7.00494162999999942E+05   7.00587912999999942E+05   7.00681662999999942E+05
             7.00775412999999942E+05   7.00869162999999942E+05   7.00962912999999942E+05   7.01056662999999942E+05   7.01150412999999942E+05
             7.01244162999999942E+05   7.01337912999999942E+05   7.01431662999999942E+05   7.01525412999999942E+05   7.01619162999999942E+05
             7.01712912999999942E+05   7.01806662999999942E+05   7.01900412999999942E+05   7.01994162999999942E+05   7.02087912999999942E+05
             7.02181662999999942E+05   7.02275412999999942E+05   7.02369162999999942E+05   7.02462912999999942E+05   7.02556662999999942E+05
             7.02650412999999942E+05   7.02744162999999942E+05   7.02837912999999942E+05   7.02931662999999942E+05   7.03025412999999942E+05
             7.03119162999999942E+05   7.03212912999999942E+05   7.03306662999999942E+05   7.03400412999999942E+05   7.03494162999999942E+05
             7.03587912999999942E+05   7.03681662999999942E+05   7.03775412999999942E+05   7.03869162999999942E+05   7.03962912999999942E+05
             7.04056662999999942E+05   7.04150412999999942E+05   7.04244162999999942E+05   7.04337912999999942E+05   7.04431662999999942E+05
             7.04525412999999942E+05   7.04619162999999942E+05   7.04712912999999942E+05   7.04806662999999942E+05   7.04900412999999942E+05
             7.04994162999999942E+05   7.05087912999999942E+05   7.05181662999999942E+05   7.05275412999999942E+05   7.05369162999999942E+05
             7.05462912999999942E+05   7.05556662999999942E+05   7.05650412999999942E+05   7.05744162999999942E+05   7.05837912999999942E+05
             7.05931662999999942E+05   7.06025412999999942E+05   7.06119162999999942E+05   7.06212912999999942E+05   7.06306662999999942E+05
             7.06400412999999942E+05   7.06494162999999942E+05   7.06587912999999942E+05   7.06681662999999942E+05   7.06775412999999942E+05
             7.06869162999999942E+05   7.06962912999999942E+05   7.07056662999999942E+05   7.07150412999999942E+05   7.07244162999999942E+05
             0.00000000000000000E+00   0.00000000000000000E+00
 ETA=   24   7.00306662999999942E+05   7.00400412999999942E+05   7.00494162999999942E+05   7.00587912999999942E+05   7.00681662999999942E+05
             7.00775412999999942E+05   7.00869162999999942E+05   7.00962912999999942E+05   7.01056662999999942E+05   7.01150412999999942E+05
             7.01244162999999942E+05   7.01337912999999942E+05   7.01431662999999942E+05   7.01525412999999942E+05   7.01619162999999942E+05
             7.01712912999999942E+05   7.01806662999999942E+05   7.01900412999999942E+05   7.01994162999999942E+05   7.02087912999999942E+05
             7.02181662999999942E+05   7.02275412999999942E+05   7.02369162999999942E+05   7.02462912999999942E+05   7.02556662999999942E+05
             7.02650412999999942E+05   7.02744162999999942E+05   7.02837912999999942E+05   7.02931662999999942E+05   7.03025412999999942E+05
             7.03119162999999942E+05   7.03212912999999942E+05   7.03306662999999942E+05   7.03400412999999942E+05   7.03494162999999942E+05
             7.03587912999999942E+05   7.03681662999999942E+05   7.03775412999999942E+05   7.03869162999999942E+05   7.03962912999999942E+05
             7.04056662999999942E+05   7.04150412999999942E+05   7.04244162999999942E+05   7.04337912999999942E+05   7.04431662999999942E+05
             7.04525412999999942E+05   7.04619162999999942E+05   7.04712912999999942E+05   7.04806662999999942E+05   7.04900412999999942E+05
             7.04994162999999942E+05   7.05087912999999942E+05   7.05181662999999942E+05   7.05275412999999942E+05   7.05369162999999942E+05
             7.05462912999999942E+05   7.05556662999999942E+05   7.05650412999999942E+05   7.05744162999999942E+05   7.05837912999999942E+05
             7.05931662999999942E+05   7.06025412999999942E+05   7.06119162999999942E+05   7.06212912999999942E+05   7.06306662999999942E+05
             7.06400412999999942E+05   7.06494162999999942E+05   7.06587912999999942E+05   7.06681662999999942E+05   7.06775412999999942E+05
             7.06869162999999942E+05   7.06962912999999942E+05   7.07056662999999942E+05   7.07150412999999942E+05   7.07244162999999942E+05
             7.07337912999999942E+05   0.00000000000000000E+00
 ETA=   25   7.00306662999999942E+05   7.00400412999999942E+05   7.00494162999999942E+05   7.00587912999999942E+05   7.00681662999999942E+05
             7.00775412999999942E+05   7.00869162999999942E+05   7.00962912999999942E+05   7.01056662999999942E+05   7.01150412999999942E+05
             7.01244162999999942E+05   7.01337912999999942E+05   7.01431662999999942E+05   7.01525412999999942E+05   7.01619162999999942E+05
             7.01712912999999942E+05   7.01806662999999942E+05   7.01900412999999942E+05   7.01994162999999942E+05   7.02087912999999942E+05
             7.02181662999999942E+05   7.02275412999999942E+05   7.02369162999999942E+05   7.02462912999999942E+05   7.02556662999999942E+05
             7.02650412999999942E+05   7.02744162999999942E+05   7.02837912999999942E+05   7.02931662999999942E+05   7.03025412999999942E+05
             7.03119162999999942E+05   7.03212912999999942E+05   7.03306662999999942E+05   7.03400412999999942E+05   7.03494162999999942E+05
             7.03587912999999942E+05   7.03681662999999942E+05   7.03775412999999942E+05   7.03869162999999942E+05   7.03962912999999942E+05
             7.04056662999999942E+05   7.04150412999999942E+05   7.04244162999999942E+05   7.04337912999999942E+05   7.04431662999999942E+05
             7.04525412999999942E+05   7.04619162999999942E+05   7.04712912999999942E+05   7.04806662999999942E+05   7.04900412999999942E+05
             7.04994162999999942E+05   7.05087912999999942E+05   7.05181662999999942E+05   7.05275412999999942E+05   7.05369162999999942E+05
             7.05462912999999942E+05   7.05556662999999942E+05   7.05650412999999942E+05   7.05744162999999942E+05   7.05837912999999942E+05
             7.05931662999999942E+05   7.06025412999999942E+05   7.06119162999999942E+05   7.06212912999999942E+05   7.06306662999999942E+05
             7.06400412999999942E+05   7.06494162999999942E+05   7.06587912999999942E+05   7.06681662999999942E+05   7.06775412999999942E+05
             7.06869162999999942E+05   7.06962912999999942E+05   7.07056662999999942E+05   7.07150412999999942E+05   7.07244162999999942E+05
             7.07337912999999942E+05   0.00000000000000000E+00
 ETA=   26   7.00306662999999942E+05   7.00400412999999942E+05   7.00494162999999942E+05   7.00587912999999942E+05   7.00681662999999942E+05
             7.00775412999999942E+05   7.00869162999999942E+05   7.00962912999999942E+05   7.01056662999999942E+05   7.01150412999999942E+05
             7.01244162999999942E+05   7.01337912999999942E+05   7.01431662999999942E+05   7.01525412999999942E+05   7.01619162999999942E+05
             7.01712912999999942E+05   7.01806662999999942E+05   7.01900412999999942E+05   7.01994162999999942E+05   7.02087912999999942E+05
             7.02181662999999942E+05   7.02275412999999942E+05   7.02369162999999942E+05   7.02462912999999942E+05   7.02556662999999942E+05
             7.02650412999999942E+05   7.02744162999999942E+05   7.02837912999999942E+05   7.02931662999999942E+05   7.03025412999999942E+05
             7.03119162999999942E+05   7.03212912999999942E+05   7.03306662999999942E+05   7.03400412999999942E+05   7.03494162999999942E+05
             7.03587912999999942E+05   7.03681662999999942E+05   7.03775412999999942E+05   7.03869162999999942E+05   7.03962912999999942E+05
             7.04056662999999942E+05   7.04150412999999942E+05   7.04244162999999942E+05   7.04337912999999942E+05   7.04431662999999942E+05
             7.04525412999999942E+05   7.04619162999999942E+05   7.04712912999999942E+05   7.04806662999999942E+05   7.04900412999999942E+05
             7.04994162999999942E+05   7.05087912999999942E+05   7.05181662999999942E+05   7.05275412999999942E+05   7.05369162999999942E+05
             7.05462912999999942E+05   7.05556662999999942E+05   7.05650412999999942E+05   7.05744162999999942E+05   7.05837912999999942E+05
             7.05931662999999942E+05   7.06025412999999942E+05   7.06119162999999942E+05   7.06212912999999942E+05   7.06306662999999942E+05
             7.06400412999999942E+05   7.06494162999999942E+05   7.06587912999999942E+05   7.06681662999999942E+05   7.06775412999999942E+05
             7.06869162999999942E+05   7.06962912999999942E+05   7.07056662999999942E+05   7.07150412999999942E+05   7.07244162999999942E+05
             7.07337912999999942E+05   0.00000000000000000E+00
 ETA=   27   7.00306662999999942E+05   7.00400412999999942E+05   7.00494162999999942E+05   7.00587912999999942E+05   7.00681662999999942E+05
             7.00775412999999942E+05   7.00869162999999942E+05   7.00962912999999942E+05   7.01056662999999942E+05   7.01150412999999942E+05
             7.01244162999999942E+05   7.01337912999999942E+05   7.01431662999999942E+05   7.01525412999999942E+05   7.01619162999999942E+05
             7.01712912999999942E+05   7.01806662999999942E+05   7.01900412999999942E+05   7.01994162999999942E+05   7.02087912999999942E+05
             7.02181662999999942E+05   7.02275412999999942E+05   7.02369162999999942E+05   7.02462912999999942E+05   7.02556662999999942E+05
             7.02650412999999942E+05   7.02744162999999942E+05   7.02837912999999942E+05   7.02931662999999942E+05   7.03025412999999942E+05
             7.03119162999999942E+05   7.03212912999999942E+05   7.03306662999999942E+05   7.03400412999999942E+05   7.03494162999999942E+05
             7.03587912999999942E+05   7.03681662999999942E+05   7.03775412999999942E+05   7.03869162999999942E+05   7.03962912999999942E+05
             7.04056662999999942E+05   7.04150412999999942E+05   7.04244162999999942E+05   7.04337912999999942E+05   7.04431662999999942E+05
             7.04525412999999942E+05   7.04619162999999942E+05   7.04712912999999942E+05   7.04806662999999942E+05   7.04900412999999942E+05
             7.04994162999999942E+05   7.05087912999999942E+05   7.05181662999999942E+05   7.05275412999999942E+05   7.05369162999999942E+05
             7.05462912999999942E+05   7.05556662999999942E+05   7.05650412999999942E+05   7.05744162999999942E+05   7.05837912999999942E+05
             7.05931662999999942E+05   7.06025412999999942E+05   7.06119162999999942E+05   7.06212912999999942E+05   7.06306662999999942E+05
             7.06400412999999942E+05   7.06494162999999942E+05   7.06587912999999942E+05   7.06681662999999942E+05   7.06775412999999942E+05
             7.06869162999999942E+05   7.06962912999999942E+05   7.07056662999999942E+05   7.07150412999999942E+05   7.07244162999999942E+05
             7.07337912999999942E+05   0.00000000000000000E+00
 ETA=   28   7.00306662999999942E+05   7.00400412999999942E+05   7.00494162999999942E+05   7.00587912999999942E+05   7.00681662999999942E+05
             7.00775412999999942E+05   7.00869162999999942E+05   7.00962912999999942E+05   7.01056662999999942E+05   7.01150412999999942E+05
             7.01244162999999942E+05   7.01337912999999942E+05   7.01431662999999942E+05   7.01525412999999942E+05   7.01619162999999942E+05
             7.01712912999999942E+05   7.01806662999999942E+05   7.01900412999999942E+05   7.01994162999999942E+05   7.02087912999999942E+05
             7.02181662999999942E+05   7.02275412999999942E+05   7.02369162999999942E+05   7.02462912999999942E+05   7.02556662999999942E+05
             7.02650412999999942E+05   7.02744162999999942E+05   7.02837912999999942E+05   7.02931662999999942E+05   7.03025412999999942E+05
             7.03119162999999942E+05   7.03212912999999942E+05   7.03306662999999942E+05   7.03400412999999942E+05   7.03494162999999942E+05
             7.03587912999999942E+05   7.03681662999999942E+05   7.03775412999999942E+05   7.03869162999999942E+05   7.03962912999999942E+05
             7.04056662999999942E+05   7.04150412999999942E+05   7.04244162999999942E+05   7.04337912999999942E+05   7.04431662999999942E+05
             7.04525412999999942E+05   7.04619162999999942E+05   7.04712912999999942E+05   7.04806662999999942E+05   7.04900412999999942E+05
             7.04994162999999942E+05   7.05087912999999942E+05   7.05181662999999942E+05   7.05275412999999942E+05   7.05369162999999942E+05
             7.05462912999999942E+05   7.05556662999999942E+05   7.05650412999999942E+05   7.05744162999999942E+05   7.05837912999999942E+05
             7.05931662999999942E+05   7.06025412999999942E+05   7.06119162999999942E+05   7.06212912999999942E+05   7.06306662999999942E+05
             7.06400412999999942E+05   7.06494162999999942E+05   7.06587912999999942E+05   7.06681662999999942E+05   7.06775412999999942E+05
             7.06869162999999942E+05   7.06962912999999942E+05   7.07056662999999942E+05   7.07150412999999942E+05   7.07244162999999942E+05
             7.07337912999999942E+05   0.00000000000000000E+00
 ETA=   29   7.00306662999999942E+05   7.00400412999999942E+05   7.00494162999999942E+05   7.00587912999999942E+05   7.00681662999999942E+05
             7.00775412999999942E+05   7.00869162999999942E+05   7.00962912999999942E+05   7.01056662999999942E+05   7.01150412999999942E+05
             7.01244162999999942E+05   7.01337912999999942E+05   7.01431662999999942E+05   7.01525412999999942E+05   7.01619162999999942E+05
             7.01712912999999942E+05   7.01806662999999942E+05   7.01900412999999942E+05   7.01994162999999942E+05   7.02087912999999942E+05
             7.02181662999999942E+05   7.02275412999999942E+05   7.02369162999999942E+05   7.02462912999999942E+05   7.02556662999999942E+05
             7.02650412999999942E+05   7.02744162999999942E+05   7.02837912999999942E+05   7.02931662999999942E+05   7.03025412999999942E+05
             7.03119162999999942E+05   7.03212912999999942E+05   7.03306662999999942E+05   7.03400412999999942E+05   7.03494162999999942E+05
             7.03587912999999942E+05   7.03681662999999942E+05   7.03775412999999942E+05   7.03869162999999942E+05   7.03962912999999942E+05
             7.04056662999999942E+05   7.04150412999999942E+05   7.04244162999999942E+05   7.04337912999999942E+05   7.04431662999999942E+05
             7.04525412999999942E+05   7.04619162999999942E+05   7.04712912999999942E+05   7.04806662999999942E+05   7.04900412999999942E+05
             7.04994162999999942E+05   7.05087912999999942E+05   7.05181662999999942E+05   7.05275412999999942E+05   7.05369162999999942E+05
             7.05462912999999942E+05   7.05556662999999942E+05   7.05650412999999942E+05   7.05744162999999942E+05   7.05837912999999942E+05
             7.05931662999999942E+05   7.06025412999999942E+05   7.06119162999999942E+05   7.06212912999999942E+05   7.06306662999999942E+05
             7.06400412999999942E+05   7.06494162999999942E+05   7.06587912999999942E+05   7.06681662999999942E+05   7.06775412999999942E+05
             7.06869162999999942E+05   7.06962912999999942E+05   7.07056662999999942E+05   7.07150412999999942E+05   7.07244162999999942E+05
             7.07337912999999942E+05   7.07431662999999942E+05
 ETA=   30   7.00306662999999942E+05   7.00400412999999942E+05   7.00494162999999942E+05   7.00587912999999942E+05   7.00681662999999942E+05
             7.00775412999999942E+05   7.00869162999999942E+05   7.00962912999999942E+05   7.01056662999999942E+05   7.01150412999999942E+05
             7.01244162999999942E+05   7.01337912999999942E+05   7.01431662999999942E+05   7.01525412999999942E+05   7.01619162999999942E+05
             7.01712912999999942E+05   7.01806662999999942E+05   7.01900412999999942E+05   7.01994162999999942E+05   7.02087912999999942E+05
             7.02181662999999942E+05   7.02275412999999942E+05   7.02369162999999942E+05   7.02462912999999942E+05   7.02556662999999942E+05
             7.02650412999999942E+05   7.02744162999999942E+05   7.02837912999999942E+05   7.02931662999999942E+05   7.03025412999999942E+05
             7.03119162999999942E+05   7.03212912999999942E+05   7.03306662999999942E+05   7.03400412999999942E+05   7.03494162999999942E+05
             7.03587912999999942E+05   7.03681662999999942E+05   7.03775412999999942E+05   7.03869162999999942E+05   7.03962912999999942E+05
             7.04056662999999942E+05   7.04150412999999942E+05   7.04244162999999942E+05   7.04337912999999942E+05   7.04431662999999942E+05
             7.04525412999999942E+05   7.04619162999999942E+05   7.04712912999999942E+05   7.04806662999999942E+05   7.04900412999999942E+05
             7.04994162999999942E+05   7.05087912999999942E+05   7.05181662999999942E+05   7.05275412999999942E+05   7.05369162999999942E+05
             7.05462912999999942E+05   7.05556662999999942E+05   7.05650412999999942E+05   7.05744162999999942E+05   7.05837912999999942E+05
             7.05931662999999942E+05   7.06025412999999942E+05   7.06119162999999942E+05   7.06212912999999942E+05   7.06306662999999942E+05
             7.06400412999999942E+05   7.06494162999999942E+05   7.06587912999999942E+05   7.06681662999999942E+05   7.06775412999999942E+05
             7.06869162999999942E+05   7.06962912999999942E+05   7.07056662999999942E+05   7.07150412999999942E+05   7.07244162999999942E+05
             7.07337912999999942E+05   7.07431662999999942E+05
 ETA=   31   7.00306662999999942E+05   7.00400412999999942E+05   7.00494162999999942E+05   7.00587912999999942E+05   7.00681662999999942E+05
             7.00775412999999942E+05   7.00869162999999942E+05   7.00962912999999942E+05   7.01056662999999942E+05   7.01150412999999942E+05
             7.01244162999999942E+05   7.01337912999999942E+05   7.01431662999999942E+05   7.01525412999999942E+05   7.01619162999999942E+05
             7.01712912999999942E+05   7.01806662999999942E+05   7.01900412999999942E+05   7.01994162999999942E+05   7.02087912999999942E+05
             7.02181662999999942E+05   7.02275412999999942E+05   7.02369162999999942E+05   7.02462912999999942E+05   7.02556662999999942E+05
             7.02650412999999942E+05   7.02744162999999942E+05   7.02837912999999942E+05   7.02931662999999942E+05   7.03025412999999942E+05
             7.03119162999999942E+05   7.03212912999999942E+05   7.03306662999999942E+05   7.03400412999999942E+05   7.03494162999999942E+05
             7.03587912999999942E+05   7.03681662999999942E+05   7.03775412999999942E+05   7.03869162999999942E+05   7.03962912999999942E+05
             7.04056662999999942E+05   7.04150412999999942E+05   7.04244162999999942E+05   7.04337912999999942E+05   7.04431662999999942E+05
             7.04525412999999942E+05   7.04619162999999942E+05   7.04712912999999942E+05   7.04806662999999942E+05   7.04900412999999942E+05
             7.04994162999999942E+05   7.05087912999999942E+05   7.05181662999999942E+05   7.05275412999999942E+05   7.05369162999999942E+05
             7.05462912999999942E+05   7.05556662999999942E+05   7.05650412999999942E+05   7.05744162999999942E+05   7.05837912999999942E+05
             7.05931662999999942E+05   7.06025412999999942E+05   7.06119162999999942E+05   7.06212912999999942E+05   7.06306662999999942E+05
             7.06400412999999942E+05   7.06494162999999942E+05   7.06587912999999942E+05   7.06681662999999942E+05   7.06775412999999942E+05
             7.06869162999999942E+05   7.06962912999999942E+05   7.07056662999999942E+05   7.07150412999999942E+05   7.07244162999999942E+05
             7.07337912999999942E+05   7.07431662999999942E+05
 ETA=   32   7.00306662999999942E+05   7.00400412999999942E+05   7.00494162999999942E+05   7.00587912999999942E+05   7.00681662999999942E+05
             7.00775412999999942E+05   7.00869162999999942E+05   7.00962912999999942E+05   7.01056662999999942E+05   7.01150412999999942E+05
             7.01244162999999942E+05   7.01337912999999942E+05   7.01431662999999942E+05   7.01525412999999942E+05   7.01619162999999942E+05
             7.01712912999999942E+05   7.01806662999999942E+05   7.01900412999999942E+05   7.01994162999999942E+05   7.02087912999999942E+05
             7.02181662999999942E+05   7.02275412999999942E+05   7.02369162999999942E+05   7.02462912999999942E+05   7.02556662999999942E+05
             7.02650412999999942E+05   7.02744162999999942E+05   7.02837912999999942E+05   7.02931662999999942E+05   7.03025412999999942E+05
             7.03119162999999942E+05   7.03212912999999942E+05   7.03306662999999942E+05   7.03400412999999942E+05   7.03494162999999942E+05
             7.03587912999999942E+05   7.03681662999999942E+05   7.03775412999999942E+05   7.03869162999999942E+05   7.03962912999999942E+05
             7.04056662999999942E+05   7.04150412999999942E+05   7.04244162999999942E+05   7.04337912999999942E+05   7.04431662999999942E+05
             7.04525412999999942E+05   7.04619162999999942E+05   7.04712912999999942E+05   7.04806662999999942E+05   7.04900412999999942E+05
             7.04994162999999942E+05   7.05087912999999942E+05   7.05181662999999942E+05   7.05275412999999942E+05   7.05369162999999942E+05
             7.05462912999999942E+05   7.05556662999999942E+05   7.05650412999999942E+05   7.05744162999999942E+05   7.05837912999999942E+05
             7.05931662999999942E+05   7.06025412999999942E+05   7.06119162999999942E+05   7.06212912999999942E+05   7.06306662999999942E+05
             7.06400412999999942E+05   7.06494162999999942E+05   7.06587912999999942E+05   7.06681662999999942E+05   7.06775412999999942E+05
             7.06869162999999942E+05   7.06962912999999942E+05   7.07056662999999942E+05   7.07150412999999942E+05   7.07244162999999942E+05
             7.07337912999999942E+05   7.07431662999999942E+05
 ETA=   33   7.00306662999999942E+05   7.00400412999999942E+05   7.00494162999999942E+05   7.00587912999999942E+05   7.00681662999999942E+05
             7.00775412999999942E+05   7.00869162999999942E+05   7.00962912999999942E+05   7.01056662999999942E+05   7.01150412999999942E+05
             7.01244162999999942E+05   7.01337912999999942E+05   7.01431662999999942E+05   7.01525412999999942E+05   7.01619162999999942E+05
             7.01712912999999942E+05   7.01806662999999942E+05   7.01900412999999942E+05   7.01994162999999942E+05   7.02087912999999942E+05
             7.02181662999999942E+05   7.02275412999999942E+05   7.02369162999999942E+05   7.02462912999999942E+05   7.02556662999999942E+05
             7.02650412999999942E+05   7.02744162999999942E+05   7.02837912999999942E+05   7.02931662999999942E+05   7.03025412999999942E+05
             7.03119162999999942E+05   7.03212912999999942E+05   7.03306662999999942E+05   7.03400412999999942E+05   7.03494162999999942E+05
             7.03587912999999942E+05   7.03681662999999942E+05   7.03775412999999942E+05   7.03869162999999942E+05   7.03962912999999942E+05
             7.04056662999999942E+05   7.04150412999999942E+05   7.04244162999999942E+05   7.04337912999999942E+05   7.04431662999999942E+05
             7.04525412999999942E+05   7.04619162999999942E+05   7.04712912999999942E+05   7.04806662999999942E+05   7.04900412999999942E+05
             7.04994162999999942E+05   7.05087912999999942E+05   7.05181662999999942E+05   7.05275412999999942E+05   7.05369162999999942E+05
             7.05462912999999942E+05   7.05556662999999942E+05   7.05650412999999942E+05   7.05744162999999942E+05   7.05837912999999942E+05
             7.05931662999999942E+05   7.06025412999999942E+05   7.06119162999999942E+05   7.06212912999999942E+05   7.06306662999999942E+05
             7.06400412999999942E+05   7.06494162999999942E+05   7.06587912999999942E+05   7.06681662999999942E+05   7.06775412999999942E+05
             7.06869162999999942E+05   7.06962912999999942E+05   7.07056662999999942E+05   7.07150412999999942E+05   7.07244162999999942E+05
             7.07337912999999942E+05   7.07431662999999942E+05
 ETA=   34   7.00306662999999942E+05   7.00400412999999942E+05   7.00494162999999942E+05   7.00587912999999942E+05   7.00681662999999942E+05
             7.00775412999999942E+05   7.00869162999999942E+05   7.00962912999999942E+05   7.01056662999999942E+05   7.01150412999999942E+05
             7.01244162999999942E+05   7.01337912999999942E+05   7.01431662999999942E+05   7.01525412999999942E+05   7.01619162999999942E+05
             7.01712912999999942E+05   7.01806662999999942E+05   7.01900412999999942E+05   7.01994162999999942E+05   7.02087912999999942E+05
             7.02181662999999942E+05   7.02275412999999942E+05   7.02369162999999942E+05   7.02462912999999942E+05   7.02556662999999942E+05
             7.02650412999999942E+05   7.02744162999999942E+05   7.02837912999999942E+05   7.02931662999999942E+05   7.03025412999999942E+05
             7.03119162999999942E+05   7.03212912999999942E+05   7.03306662999999942E+05   7.03400412999999942E+05   7.03494162999999942E+05
             7.03587912999999942E+05   7.03681662999999942E+05   7.03775412999999942E+05   7.03869162999999942E+05   7.03962912999999942E+05
             7.04056662999999942E+05   7.04150412999999942E+05   7.04244162999999942E+05   7.04337912999999942E+05   7.04431662999999942E+05
             7.04525412999999942E+05   7.04619162999999942E+05   7.04712912999999942E+05   7.04806662999999942E+05   7.04900412999999942E+05
             7.04994162999999942E+05   7.05087912999999942E+05   7.05181662999999942E+05   7.05275412999999942E+05   7.05369162999999942E+05
             7.05462912999999942E+05   7.05556662999999942E+05   7.05650412999999942E+05   7.05744162999999942E+05   7.05837912999999942E+05
             7.05931662999999942E+05   7.06025412999999942E+05   7.06119162999999942E+05   7.06212912999999942E+05   7.06306662999999942E+05
             7.06400412999999942E+05   7.06494162999999942E+05   7.06587912999999942E+05   7.06681662999999942E+05   7.06775412999999942E+05
             7.06869162999999942E+05   7.06962912999999942E+05   7.07056662999999942E+05   7.07150412999999942E+05   7.07244162999999942E+05
             7.07337912999999942E+05   7.07431662999999942E+05
 ETA=   35   7.00306662999999942E+05   7.00400412999999942E+05   7.00494162999999942E+05   7.00587912999999942E+05   7.00681662999999942E+05
             7.00775412999999942E+05   7.00869162999999942E+05   7.00962912999999942E+05   7.01056662999999942E+05   7.01150412999999942E+05
             7.01244162999999942E+05   7.01337912999999942E+05   7.01431662999999942E+05   7.01525412999999942E+05   7.01619162999999942E+05
             7.01712912999999942E+05   7.01806662999999942E+05   7.01900412999999942E+05   7.01994162999999942E+05   7.02087912999999942E+05
             7.02181662999999942E+05   7.02275412999999942E+05   7.02369162999999942E+05   7.02462912999999942E+05   7.02556662999999942E+05
             7.02650412999999942E+05   7.02744162999999942E+05   7.02837912999999942E+05   7.02931662999999942E+05   7.03025412999999942E+05
             7.03119162999999942E+05   7.03212912999999942E+05   7.03306662999999942E+05   7.03400412999999942E+05   7.03494162999999942E+05
             7.03587912999999942E+05   7.03681662999999942E+05   7.03775412999999942E+05   7.03869162999999942E+05   7.03962912999999942E+05
             7.04056662999999942E+05   7.04150412999999942E+05   7.04244162999999942E+05   7.04337912999999942E+05   7.04431662999999942E+05
             7.04525412999999942E+05   7.04619162999999942E+05   7.04712912999999942E+05   7.04806662999999942E+05   7.04900412999999942E+05
             7.04994162999999942E+05   7.05087912999999942E+05   7.05181662999999942E+05   7.05275412999999942E+05   7.05369162999999942E+05
             7.05462912999999942E+05   7.05556662999999942E+05   7.05650412999999942E+05   7.05744162999999942E+05   7.05837912999999942E+05
             7.05931662999999942E+05   7.06025412999999942E+05   7.06119162999999942E+05   7.06212912999999942E+05   7.06306662999999942E+05
             7.06400412999999942E+05   7.06494162999999942E+05   7.06587912999999942E+05   7.06681662999999942E+05   7.06775412999999942E+05
             7.06869162999999942E+05   7.06962912999999942E+05   7.07056662999999942E+05   7.07150412999999942E+05   7.07244162999999942E+05
             7.07337912999999942E+05   7.07431662999999942E+05
 ETA=   36   7.00306662999999942E+05   7.00400412999999942E+05   7.00494162999999942E+05   7.00587912999999942E+05   7.00681662999999942E+05
             7.00775412999999942E+05   7.00869162999999942E+05   7.00962912999999942E+05   7.01056662999999942E+05   7.01150412999999942E+05
             7.01244162999999942E+05   7.01337912999999942E+05   7.01431662999999942E+05   7.01525412999999942E+05   7.01619162999999942E+05
             7.01712912999999942E+05   7.01806662999999942E+05   7.01900412999999942E+05   7.01994162999999942E+05   7.02087912999999942E+05
             7.02181662999999942E+05   7.02275412999999942E+05   7.02369162999999942E+05   7.02462912999999942E+05   7.02556662999999942E+05
             7.02650412999999942E+05   7.02744162999999942E+05   7.02837912999999942E+05   7.02931662999999942E+05   7.03025412999999942E+05
             7.03119162999999942E+05   7.03212912999999942E+05   7.03306662999999942E+05   7.03400412999999942E+05   7.03494162999999942E+05
             7.03587912999999942E+05   7.03681662999999942E+05   7.03775412999999942E+05   7.03869162999999942E+05   7.03962912999999942E+05
             7.04056662999999942E+05   7.04150412999999942E+05   7.04244162999999942E+05   7.04337912999999942E+05   7.04431662999999942E+05
             7.04525412999999942E+05   7.04619162999999942E+05   7.04712912999999942E+05   7.04806662999999942E+05   7.04900412999999942E+05
             7.04994162999999942E+05   7.05087912999999942E+05   7.05181662999999942E+05   7.05275412999999942E+05   7.05369162999999942E+05
             7.05462912999999942E+05   7.05556662999999942E+05   7.05650412999999942E+05   7.05744162999999942E+05   7.05837912999999942E+05
             7.05931662999999942E+05   7.06025412999999942E+05   7.06119162999999942E+05   7.06212912999999942E+05   7.06306662999999942E+05
             7.06400412999999942E+05   7.06494162999999942E+05   7.06587912999999942E+05   7.06681662999999942E+05   7.06775412999999942E+05
             7.06869162999999942E+05   7.06962912999999942E+05   7.07056662999999942E+05   7.07150412999999942E+05   7.07244162999999942E+05
             7.07337912999999942E+05   7.07431662999999942E+05
 ETA=   37   7.00306662999999942E+05   7.00400412999999942E+05   7.00494162999999942E+05   7.00587912999999942E+05   7.00681662999999942E+05
             7.00775412999999942E+05   7.00869162999999942E+05   7.00962912999999942E+05   7.01056662999999942E+05   7.01150412999999942E+05
             7.01244162999999942E+05   7.01337912999999942E+05   7.01431662999999942E+05   7.01525412999999942E+05   7.01619162999999942E+05
             7.01712912999999942E+05   7.01806662999999942E+05   7.01900412999999942E+05   7.01994162999999942E+05   7.02087912999999942E+05
             7.02181662999999942E+05   7.02275412999999942E+05   7.02369162999999942E+05   7.02462912999999942E+05   7.02556662999999942E+05
             7.02650412999999942E+05   7.02744162999999942E+05   7.02837912999999942E+05   7.02931662999999942E+05   7.03025412999999942E+05
             7.03119162999999942E+05   7.03212912999999942E+05   7.03306662999999942E+05   7.03400412999999942E+05   7.03494162999999942E+05
             7.03587912999999942E+05   7.03681662999999942E+05   7.03775412999999942E+05   7.03869162999999942E+05   7.03962912999999942E+05
             7.04056662999999942E+05   7.04150412999999942E+05   7.04244162999999942E+05   7.04337912999999942E+05   7.04431662999999942E+05
             7.04525412999999942E+05   7.04619162999999942E+05   7.04712912999999942E+05   7.04806662999999942E+05   7.04900412999999942E+05
[...]
             9.32563725799999945E+06   9.32563725799999945E+06   9.32563725799999945E+06   9.32563725799999945E+06   9.32563725799999945E+06
             9.32563725799999945E+06   9.32563725799999945E+06   9.32563725799999945E+06   9.32563725799999945E+06   9.32563725799999945E+06
             9.32563725799999945E+06   9.32563725799999945E+06
 ETA=   30   9.32573100799999945E+06   9.32573100799999945E+06   9.32573100799999945E+06   9.32573100799999945E+06   9.32573100799999945E+06
             9.32573100799999945E+06   9.32573100799999945E+06   9.32573100799999945E+06   9.32573100799999945E+06   9.32573100799999945E+06
             9.32573100799999945E+06   9.32573100799999945E+06   9.32573100799999945E+06   9.32573100799999945E+06   9.32573100799999945E+06
             9.32573100799999945E+06   9.32573100799999945E+06   9.32573100799999945E+06   9.32573100799999945E+06   9.32573100799999945E+06
             9.32573100799999945E+06   9.32573100799999945E+06   9.32573100799999945E+06   9.32573100799999945E+06   9.32573100799999945E+06
             9.32573100799999945E+06   9.32573100799999945E+06   9.32573100799999945E+06   9.32573100799999945E+06   9.32573100799999945E+06
             9.32573100799999945E+06   9.32573100799999945E+06   9.32573100799999945E+06   9.32573100799999945E+06   9.32573100799999945E+06
             9.32573100799999945E+06   9.32573100799999945E+06   9.32573100799999945E+06   9.32573100799999945E+06   9.32573100799999945E+06
             9.32573100799999945E+06   9.32573100799999945E+06   9.32573100799999945E+06   9.32573100799999945E+06   9.32573100799999945E+06
             9.32573100799999945E+06   9.32573100799999945E+06   9.32573100799999945E+06   9.32573100799999945E+06   9.32573100799999945E+06
             9.32573100799999945E+06   9.32573100799999945E+06   9.32573100799999945E+06   9.32573100799999945E+06   9.32573100799999945E+06
             9.32573100799999945E+06   9.32573100799999945E+06   9.32573100799999945E+06   9.32573100799999945E+06   9.32573100799999945E+06
             9.32573100799999945E+06   9.32573100799999945E+06   9.32573100799999945E+06   9.32573100799999945E+06   9.32573100799999945E+06
             9.32573100799999945E+06   9.32573100799999945E+06   9.32573100799999945E+06   9.32573100799999945E+06   9.32573100799999945E+06
             9.32573100799999945E+06   9.32573100799999945E+06   9.32573100799999945E+06   9.32573100799999945E+06   9.32573100799999945E+06
             9.32573100799999945E+06   9.32573100799999945E+06
 ETA=   31   9.32582475799999945E+06   9.32582475799999945E+06   9.32582475799999945E+06   9.32582475799999945E+06   9.32582475799999945E+06
             9.32582475799999945E+06   9.32582475799999945E+06   9.32582475799999945E+06   9.32582475799999945E+06   9.32582475799999945E+06
             9.32582475799999945E+06   9.32582475799999945E+06   9.32582475799999945E+06   9.32582475799999945E+06   9.32582475799999945E+06
             9.32582475799999945E+06   9.32582475799999945E+06   9.32582475799999945E+06   9.32582475799999945E+06   9.32582475799999945E+06
             9.32582475799999945E+06   9.32582475799999945E+06   9.32582475799999945E+06   9.32582475799999945E+06   9.32582475799999945E+06
             9.32582475799999945E+06   9.32582475799999945E+06   9.32582475799999945E+06   9.32582475799999945E+06   9.32582475799999945E+06
             9.32582475799999945E+06   9.32582475799999945E+06   9.32582475799999945E+06   9.32582475799999945E+06   9.32582475799999945E+06
             9.32582475799999945E+06   9.32582475799999945E+06   9.32582475799999945E+06   9.32582475799999945E+06   9.32582475799999945E+06
             9.32582475799999945E+06   9.32582475799999945E+06   9.32582475799999945E+06   9.32582475799999945E+06   9.32582475799999945E+06
             9.32582475799999945E+06   9.32582475799999945E+06   9.32582475799999945E+06   9.32582475799999945E+06   9.32582475799999945E+06
             9.32582475799999945E+06   9.32582475799999945E+06   9.32582475799999945E+06   9.32582475799999945E+06   9.32582475799999945E+06
             9.32582475799999945E+06   9.32582475799999945E+06   9.32582475799999945E+06   9.32582475799999945E+06   9.32582475799999945E+06
             9.32582475799999945E+06   9.32582475799999945E+06   9.32582475799999945E+06   9.32582475799999945E+06   9.32582475799999945E+06
             9.32582475799999945E+06   9.32582475799999945E+06   9.32582475799999945E+06   9.32582475799999945E+06   9.32582475799999945E+06
             9.32582475799999945E+06   9.32582475799999945E+06   9.32582475799999945E+06   9.32582475799999945E+06   9.32582475799999945E+06
             9.32582475799999945E+06   9.32582475799999945E+06
 ETA=   32   9.32591850799999945E+06   9.32591850799999945E+06   9.32591850799999945E+06   9.32591850799999945E+06   9.32591850799999945E+06
             9.32591850799999945E+06   9.32591850799999945E+06   9.32591850799999945E+06   9.32591850799999945E+06   9.32591850799999945E+06
             9.32591850799999945E+06   9.32591850799999945E+06   9.32591850799999945E+06   9.32591850799999945E+06   9.32591850799999945E+06
             9.32591850799999945E+06   9.32591850799999945E+06   9.32591850799999945E+06   9.32591850799999945E+06   9.32591850799999945E+06
             9.32591850799999945E+06   9.32591850799999945E+06   9.32591850799999945E+06   9.32591850799999945E+06   9.32591850799999945E+06
             9.32591850799999945E+06   9.32591850799999945E+06   9.32591850799999945E+06   9.32591850799999945E+06   9.32591850799999945E+06
             9.32591850799999945E+06   9.32591850799999945E+06   9.32591850799999945E+06   9.32591850799999945E+06   9.32591850799999945E+06
             9.32591850799999945E+06   9.32591850799999945E+06   9.32591850799999945E+06   9.32591850799999945E+06   9.32591850799999945E+06
             9.32591850799999945E+06   9.32591850799999945E+06   9.32591850799999945E+06   9.32591850799999945E+06   9.32591850799999945E+06
             9.32591850799999945E+06   9.32591850799999945E+06   9.32591850799999945E+06   9.32591850799999945E+06   9.32591850799999945E+06
             9.32591850799999945E+06   9.32591850799999945E+06   9.32591850799999945E+06   9.32591850799999945E+06   9.32591850799999945E+06
             9.32591850799999945E+06   9.32591850799999945E+06   9.32591850799999945E+06   9.32591850799999945E+06   9.32591850799999945E+06
             9.32591850799999945E+06   9.32591850799999945E+06   9.32591850799999945E+06   9.32591850799999945E+06   9.32591850799999945E+06
             9.32591850799999945E+06   9.32591850799999945E+06   9.32591850799999945E+06   9.32591850799999945E+06   9.32591850799999945E+06
             9.32591850799999945E+06   9.32591850799999945E+06   9.32591850799999945E+06   9.32591850799999945E+06   9.32591850799999945E+06
             9.32591850799999945E+06   9.32591850799999945E+06
 ETA=   33   9.32601225799999945E+06   9.32601225799999945E+06   9.32601225799999945E+06   9.32601225799999945E+06   9.32601225799999945E+06
             9.32601225799999945E+06   9.32601225799999945E+06   9.32601225799999945E+06   9.32601225799999945E+06   9.32601225799999945E+06
             9.32601225799999945E+06   9.32601225799999945E+06   9.32601225799999945E+06   9.32601225799999945E+06   9.32601225799999945E+06
             9.32601225799999945E+06   9.32601225799999945E+06   9.32601225799999945E+06   9.32601225799999945E+06   9.32601225799999945E+06
             9.32601225799999945E+06   9.32601225799999945E+06   9.32601225799999945E+06   9.32601225799999945E+06   9.32601225799999945E+06
             9.32601225799999945E+06   9.32601225799999945E+06   9.32601225799999945E+06   9.32601225799999945E+06   9.32601225799999945E+06
             9.32601225799999945E+06   9.32601225799999945E+06   9.32601225799999945E+06   9.32601225799999945E+06   9.32601225799999945E+06
             9.32601225799999945E+06   9.32601225799999945E+06   9.32601225799999945E+06   9.32601225799999945E+06   9.32601225799999945E+06
             9.32601225799999945E+06   9.32601225799999945E+06   9.32601225799999945E+06   9.32601225799999945E+06   9.32601225799999945E+06
             9.32601225799999945E+06   9.32601225799999945E+06   9.32601225799999945E+06   9.32601225799999945E+06   9.32601225799999945E+06
             9.32601225799999945E+06   9.32601225799999945E+06   9.32601225799999945E+06   9.32601225799999945E+06   9.32601225799999945E+06
             9.32601225799999945E+06   9.32601225799999945E+06   9.32601225799999945E+06   9.32601225799999945E+06   9.32601225799999945E+06
             9.32601225799999945E+06   9.32601225799999945E+06   9.32601225799999945E+06   9.32601225799999945E+06   9.32601225799999945E+06
             9.32601225799999945E+06   9.32601225799999945E+06   9.32601225799999945E+06   9.32601225799999945E+06   9.32601225799999945E+06
             9.32601225799999945E+06   9.32601225799999945E+06   9.32601225799999945E+06   9.32601225799999945E+06   9.32601225799999945E+06
             9.32601225799999945E+06   9.32601225799999945E+06
 ETA=   34   9.32610600799999945E+06   9.32610600799999945E+06   9.32610600799999945E+06   9.32610600799999945E+06   9.32610600799999945E+06
             9.32610600799999945E+06   9.32610600799999945E+06   9.32610600799999945E+06   9.32610600799999945E+06   9.32610600799999945E+06
             9.32610600799999945E+06   9.32610600799999945E+06   9.32610600799999945E+06   9.32610600799999945E+06   9.32610600799999945E+06
             9.32610600799999945E+06   9.32610600799999945E+06   9.32610600799999945E+06   9.32610600799999945E+06   9.32610600799999945E+06
             9.32610600799999945E+06   9.32610600799999945E+06   9.32610600799999945E+06   9.32610600799999945E+06   9.32610600799999945E+06
             9.32610600799999945E+06   9.32610600799999945E+06   9.32610600799999945E+06   9.32610600799999945E+06   9.32610600799999945E+06
             9.32610600799999945E+06   9.32610600799999945E+06   9.32610600799999945E+06   9.32610600799999945E+06   9.32610600799999945E+06
             9.32610600799999945E+06   9.32610600799999945E+06   9.32610600799999945E+06   9.32610600799999945E+06   9.32610600799999945E+06
             9.32610600799999945E+06   9.32610600799999945E+06   9.32610600799999945E+06   9.32610600799999945E+06   9.32610600799999945E+06
             9.32610600799999945E+06   9.32610600799999945E+06   9.32610600799999945E+06   9.32610600799999945E+06   9.32610600799999945E+06
             9.32610600799999945E+06   9.32610600799999945E+06   9.32610600799999945E+06   9.32610600799999945E+06   9.32610600799999945E+06
             9.32610600799999945E+06   9.32610600799999945E+06   9.32610600799999945E+06   9.32610600799999945E+06   9.32610600799999945E+06
             9.32610600799999945E+06   9.32610600799999945E+06   9.32610600799999945E+06   9.32610600799999945E+06   9.32610600799999945E+06
             9.32610600799999945E+06   9.32610600799999945E+06   9.32610600799999945E+06   9.32610600799999945E+06   9.32610600799999945E+06
             9.32610600799999945E+06   9.32610600799999945E+06   9.32610600799999945E+06   9.32610600799999945E+06   9.32610600799999945E+06
             9.32610600799999945E+06   9.32610600799999945E+06
 ETA=   35   9.32619975799999945E+06   9.32619975799999945E+06   9.32619975799999945E+06   9.32619975799999945E+06   9.32619975799999945E+06
             9.32619975799999945E+06   9.32619975799999945E+06   9.32619975799999945E+06   9.32619975799999945E+06   9.32619975799999945E+06
             9.32619975799999945E+06   9.32619975799999945E+06   9.32619975799999945E+06   9.32619975799999945E+06   9.32619975799999945E+06
             9.32619975799999945E+06   9.32619975799999945E+06   9.32619975799999945E+06   9.32619975799999945E+06   9.32619975799999945E+06
             9.32619975799999945E+06   9.32619975799999945E+06   9.32619975799999945E+06   9.32619975799999945E+06   9.32619975799999945E+06
             9.32619975799999945E+06   9.32619975799999945E+06   9.32619975799999945E+06   9.32619975799999945E+06   9.32619975799999945E+06
             9.32619975799999945E+06   9.32619975799999945E+06   9.32619975799999945E+06   9.32619975799999945E+06   9.32619975799999945E+06
             9.32619975799999945E+06   9.32619975799999945E+06   9.32619975799999945E+06   9.32619975799999945E+06   9.32619975799999945E+06
             9.32619975799999945E+06   9.32619975799999945E+06   9.32619975799999945E+06   9.32619975799999945E+06   9.32619975799999945E+06
             9.32619975799999945E+06   9.32619975799999945E+06   9.32619975799999945E+06   9.32619975799999945E+06   9.32619975799999945E+06
             9.32619975799999945E+06   9.32619975799999945E+06   9.32619975799999945E+06   9.32619975799999945E+06   9.32619975799999945E+06
             9.32619975799999945E+06   9.32619975799999945E+06   9.32619975799999945E+06   9.32619975799999945E+06   9.32619975799999945E+06
             9.32619975799999945E+06   9.32619975799999945E+06   9.32619975799999945E+06   9.32619975799999945E+06   9.32619975799999945E+06
             9.32619975799999945E+06   9.32619975799999945E+06   9.32619975799999945E+06   9.32619975799999945E+06   9.32619975799999945E+06
             9.32619975799999945E+06   9.32619975799999945E+06   9.32619975799999945E+06   9.32619975799999945E+06   9.32619975799999945E+06
             9.32619975799999945E+06   9.32619975799999945E+06
 ETA=   36   9.32629350799999945E+06   9.32629350799999945E+06   9.32629350799999945E+06   9.32629350799999945E+06   9.32629350799999945E+06
             9.32629350799999945E+06   9.32629350799999945E+06   9.32629350799999945E+06   9.32629350799999945E+06   9.32629350799999945E+06
             9.32629350799999945E+06   9.32629350799999945E+06   9.32629350799999945E+06   9.32629350799999945E+06   9.32629350799999945E+06
             9.32629350799999945E+06   9.32629350799999945E+06   9.32629350799999945E+06   9.32629350799999945E+06   9.32629350799999945E+06
             9.32629350799999945E+06   9.32629350799999945E+06   9.32629350799999945E+06   9.32629350799999945E+06   9.32629350799999945E+06
             9.32629350799999945E+06   9.32629350799999945E+06   9.32629350799999945E+06   9.32629350799999945E+06   9.32629350799999945E+06
             9.32629350799999945E+06   9.32629350799999945E+06   9.32629350799999945E+06   9.32629350799999945E+06   9.32629350799999945E+06
             9.32629350799999945E+06   9.32629350799999945E+06   9.32629350799999945E+06   9.32629350799999945E+06   9.32629350799999945E+06
             9.32629350799999945E+06   9.32629350799999945E+06   9.32629350799999945E+06   9.32629350799999945E+06   9.32629350799999945E+06
             9.32629350799999945E+06   9.32629350799999945E+06   9.32629350799999945E+06   9.32629350799999945E+06   9.32629350799999945E+06
             9.32629350799999945E+06   9.32629350799999945E+06   9.32629350799999945E+06   9.32629350799999945E+06   9.32629350799999945E+06
             9.32629350799999945E+06   9.32629350799999945E+06   9.32629350799999945E+06   9.32629350799999945E+06   9.32629350799999945E+06
             9.32629350799999945E+06   9.32629350799999945E+06   9.32629350799999945E+06   9.32629350799999945E+06   9.32629350799999945E+06
             9.32629350799999945E+06   9.32629350799999945E+06   9.32629350799999945E+06   9.32629350799999945E+06   9.32629350799999945E+06
             9.32629350799999945E+06   9.32629350799999945E+06   9.32629350799999945E+06   9.32629350799999945E+06   9.32629350799999945E+06
             9.32629350799999945E+06   9.32629350799999945E+06
 ETA=   37   9.32638725799999945E+06   9.32638725799999945E+06   9.32638725799999945E+06   9.32638725799999945E+06   9.32638725799999945E+06
             9.32638725799999945E+06   9.32638725799999945E+06   9.32638725799999945E+06   9.32638725799999945E+06   9.32638725799999945E+06
             9.32638725799999945E+06   9.32638725799999945E+06   9.32638725799999945E+06   9.32638725799999945E+06   9.32638725799999945E+06
             9.32638725799999945E+06   9.32638725799999945E+06   9.32638725799999945E+06   9.32638725799999945E+06   9.32638725799999945E+06
             9.32638725799999945E+06   9.32638725799999945E+06   9.32638725799999945E+06   9.32638725799999945E+06   9.32638725799999945E+06
             9.32638725799999945E+06   9.32638725799999945E+06   9.32638725799999945E+06   9.32638725799999945E+06   9.32638725799999945E+06
             9.32638725799999945E+06   9.32638725799999945E+06   9.32638725799999945E+06   9.32638725799999945E+06   9.32638725799999945E+06
             9.32638725799999945E+06   9.32638725799999945E+06   9.32638725799999945E+06   9.32638725799999945E+06   9.32638725799999945E+06
             9.32638725799999945E+06   9.32638725799999945E+06   9.32638725799999945E+06   9.32638725799999945E+06   9.32638725799999945E+06
             9.32638725799999945E+06   9.32638725799999945E+06   9.32638725799999945E+06   9.32638725799999945E+06   9.32638725799999945E+06
             9.32638725799999945E+06   9.32638725799999945E+06   9.32638725799999945E+06   9.32638725799999945E+06   9.32638725799999945E+06
             9.32638725799999945E+06   9.32638725799999945E+06   9.32638725799999945E+06   9.32638725799999945E+06   9.32638725799999945E+06
             9.32638725799999945E+06   9.32638725799999945E+06   9.32638725799999945E+06   9.32638725799999945E+06   9.32638725799999945E+06
             9.32638725799999945E+06   9.32638725799999945E+06   9.32638725799999945E+06   9.32638725799999945E+06   9.32638725799999945E+06
             9.32638725799999945E+06   9.32638725799999945E+06   9.32638725799999945E+06   9.32638725799999945E+06   9.32638725799999945E+06
             9.32638725799999945E+06   9.32638725799999945E+06
 ETA=   38   9.32648100799999945E+06   9.32648100799999945E+06   9.32648100799999945E+06   9.32648100799999945E+06   9.32648100799999945E+06
             9.32648100799999945E+06   9.32648100799999945E+06   9.32648100799999945E+06   9.32648100799999945E+06   9.32648100799999945E+06
             9.32648100799999945E+06   9.32648100799999945E+06   9.32648100799999945E+06   9.32648100799999945E+06   9.32648100799999945E+06
             9.32648100799999945E+06   9.32648100799999945E+06   9.32648100799999945E+06   9.32648100799999945E+06   9.32648100799999945E+06
             9.32648100799999945E+06   9.32648100799999945E+06   9.32648100799999945E+06   9.32648100799999945E+06   9.32648100799999945E+06
             9.32648100799999945E+06   9.32648100799999945E+06   9.32648100799999945E+06   9.32648100799999945E+06   9.32648100799999945E+06
             9.32648100799999945E+06   9.32648100799999945E+06   9.32648100799999945E+06   9.32648100799999945E+06   9.32648100799999945E+06
             9.32648100799999945E+06   9.32648100799999945E+06   9.32648100799999945E+06   9.32648100799999945E+06   9.32648100799999945E+06
             9.32648100799999945E+06   9.32648100799999945E+06   9.32648100799999945E+06   9.32648100799999945E+06   9.32648100799999945E+06
             9.32648100799999945E+06   9.32648100799999945E+06   9.32648100799999945E+06   9.32648100799999945E+06   9.32648100799999945E+06
             9.32648100799999945E+06   9.32648100799999945E+06   9.32648100799999945E+06   9.32648100799999945E+06   9.32648100799999945E+06
             9.32648100799999945E+06   9.32648100799999945E+06   9.32648100799999945E+06   9.32648100799999945E+06   9.32648100799999945E+06
             9.32648100799999945E+06   9.32648100799999945E+06   9.32648100799999945E+06   9.32648100799999945E+06   9.32648100799999945E+06
             9.32648100799999945E+06   9.32648100799999945E+06   9.32648100799999945E+06   9.32648100799999945E+06   9.32648100799999945E+06
             9.32648100799999945E+06   9.32648100799999945E+06   9.32648100799999945E+06   9.32648100799999945E+06   9.32648100799999945E+06
             9.32648100799999945E+06   9.32648100799999945E+06
