*
* Deltares, Delft3D-RGFGRID Version 4.18.01.18383, Sep  7 2011, 14:23:22
* File creation date: 2014-07-03, 10:08:28
*
Coordinate System = Cartesian
     252     135
 0 0 0
 ETA=    1   0.00000000000000000E+00   0.00000000000000000E+00   0.00000000000000000E+00   0.00000000000000000E+00   0.00000000000000000E+00
             0.00000000000000000E+00   0.00000000000000000E+00   0.00000000000000000E+00   0.00000000000000000E+00   0.00000000000000000E+00
             0.00000000000000000E+00   0.00000000000000000E+00   0.00000000000000000E+00   0.00000000000000000E+00   0.00000000000000000E+00
             0.00000000000000000E+00   0.00000000000000000E+00   0.00000000000000000E+00   0.00000000000000000E+00   0.00000000000000000E+00
             0.00000000000000000E+00   0.00000000000000000E+00   0.00000000000000000E+00   0.00000000000000000E+00   0.00000000000000000E+00
             0.00000000000000000E+00   0.00000000000000000E+00   0.00000000000000000E+00   0.00000000000000000E+00   0.00000000000000000E+00
             0.00000000000000000E+00   0.00000000000000000E+00   0.00000000000000000E+00   0.00000000000000000E+00   0.00000000000000000E+00
             0.00000000000000000E+00   0.00000000000000000E+00   0.00000000000000000E+00   0.00000000000000000E+00   0.00000000000000000E+00
             0.00000000000000000E+00   0.00000000000000000E+00   0.00000000000000000E+00   0.00000000000000000E+00   0.00000000000000000E+00
             0.00000000000000000E+00   0.00000000000000000E+00   0.00000000000000000E+00   0.00000000000000000E+00   0.00000000000000000E+00
             0.00000000000000000E+00   0.00000000000000000E+00   0.00000000000000000E+00   0.00000000000000000E+00   0.00000000000000000E+00
             0.00000000000000000E+00   0.00000000000000000E+00   0.00000000000000000E+00   0.00000000000000000E+00   0.00000000000000000E+00
             0.00000000000000000E+00   0.00000000000000000E+00   0.00000000000000000E+00   0.00000000000000000E+00   0.00000000000000000E+00
             0.00000000000000000E+00   0.00000000000000000E+00   0.00000000000000000E+00   0.00000000000000000E+00   0.00000000000000000E+00
             0.00000000000000000E+00   0.00000000000000000E+00   0.00000000000000000E+00   0.00000000000000000E+00   0.00000000000000000E+00
             0.00000000000000000E+00   0.00000000000000000E+00   0.00000000000000000E+00   0.00000000000000000E+00   0.00000000000000000E+00
             0.00000000000000000E+00   0.00000000000000000E+00   0.00000000000000000E+00   0.00000000000000000E+00   0.00000000000000000E+00
             0.00000000000000000E+00   0.00000000000000000E+00   0.00000000000000000E+00   0.00000000000000000E+00   0.00000000000000000E+00
             0.00000000000000000E+00   0.00000000000000000E+00   0.00000000000000000E+00   0.00000000000000000E+00   0.00000000000000000E+00
             0.00000000000000000E+00   0.00000000000000000E+00   0.00000000000000000E+00   0.00000000000000000E+00   0.00000000000000000E+00
             0.00000000000000000E+00   0.00000000000000000E+00   0.00000000000000000E+00   0.00000000000000000E+00   7.01719162999999942E+05
             7.01869162999999942E+05   7.02019162999999942E+05   7.02169162999999942E+05   0.00000000000000000E+00   0.00000000000000000E+00
             0.00000000000000000E+00   0.00000000000000000E+00   0.00000000000000000E+00   0.00000000000000000E+00   0.00000000000000000E+00
             0.00000000000000000E+00   0.00000000000000000E+00   0.00000000000000000E+00   0.00000000000000000E+00   0.00000000000000000E+00
             0.00000000000000000E+00   0.00000000000000000E+00   0.00000000000000000E+00   0.00000000000000000E+00   0.00000000000000000E+00
             0.00000000000000000E+00   0.00000000000000000E+00   0.00000000000000000E+00   0.00000000000000000E+00   0.00000000000000000E+00
             0.00000000000000000E+00   0.00000000000000000E+00   0.00000000000000000E+00   0.00000000000000000E+00   0.00000000000000000E+00
             0.00000000000000000E+00   0.00000000000000000E+00   0.00000000000000000E+00   0.00000000000000000E+00   0.00000000000000000E+00
             0.00000000000000000E+00   0.00000000000000000E+00   0.00000000000000000E+00   0.00000000000000000E+00   0.00000000000000000E+00
             0.00000000000000000E+00   0.00000000000000000E+00   0.00000000000000000E+00   0.00000000000000000E+00   0.00000000000000000E+00
             0.00000000000000000E+00   0.00000000000000000E+00   0.00000000000000000E+00   0.00000000000000000E+00   0.00000000000000000E+00
             0.00000000000000000E+00   0.00000000000000000E+00   0.00000000000000000E+00   0.00000000000000000E+00   0.00000000000000000E+00
             0.00000000000000000E+00   0.00000000000000000E+00   0.00000000000000000E+00   0.00000000000000000E+00   0.00000000000000000E+00
             0.00000000000000000E+00   0.00000000000000000E+00   0.00000000000000000E+00   0.00000000000000000E+00   0.00000000000000000E+00
             0.00000000000000000E+00   0.00000000000000000E+00   0.00000000000000000E+00   0.00000000000000000E+00   0.00000000000000000E+00
             0.00000000000000000E+00   0.00000000000000000E+00   0.00000000000000000E+00   0.00000000000000000E+00   0.00000000000000000E+00
             0.00000000000000000E+00   0.00000000000000000E+00   0.00000000000000000E+00   0.00000000000000000E+00   0.00000000000000000E+00
             0.00000000000000000E+00   0.00000000000000000E+00   0.00000000000000000E+00   0.00000000000000000E+00   0.00000000000000000E+00
             0.00000000000000000E+00   0.00000000000000000E+00   0.00000000000000000E+00   0.00000000000000000E+00   0.00000000000000000E+00
             0.00000000000000000E+00   0.00000000000000000E+00   0.00000000000000000E+00   0.00000000000000000E+00   0.00000000000000000E+00
             0.00000000000000000E+00   0.00000000000000000E+00   0.00000000000000000E+00   0.00000000000000000E+00   0.00000000000000000E+00
             0.00000000000000000E+00   0.00000000000000000E+00   0.00000000000000000E+00   0.00000000000000000E+00   0.00000000000000000E+00
             0.00000000000000000E+00   0.00000000000000000E+00   0.00000000000000000E+00   0.00000000000000000E+00   0.00000000000000000E+00
             0.00000000000000000E+00   0.00000000000000000E+00   0.00000000000000000E+00   0.00000000000000000E+00   0.00000000000000000E+00
             0.00000000000000000E+00   0.00000000000000000E+00   0.00000000000000000E+00   0.00000000000000000E+00   0.00000000000000000E+00
             0.00000000000000000E+00   0.00000000000000000E+00   0.00000000000000000E+00   0.00000000000000000E+00   0.00000000000000000E+00
             0.00000000000000000E+00   0.00000000000000000E+00   0.00000000000000000E+00   0.00000000000000000E+00   0.00000000000000000E+00
             0.00000000000000000E+00   0.00000000000000000E+00   0.00000000000000000E+00   0.00000000000000000E+00   0.00000000000000000E+00
             0.00000000000000000E+00   0.00000000000000000E+00   0.00000000000000000E+00   0.00000000000000000E+00   0.00000000000000000E+00
             0.00000000000000000E+00   0.00000000000000000E+00   0.00000000000000000E+00   0.00000000000000000E+00   0.00000000000000000E+00
             0.00000000000000000E+00   0.00000000000000000E+00
 ETA=    2   0.00000000000000000E+00   0.00000000000000000E+00   0.00000000000000000E+00   0.00000000000000000E+00   0.00000000000000000E+00
             0.00000000000000000E+00   0.00000000000000000E+00   0.00000000000000000E+00   0.00000000000000000E+00   0.00000000000000000E+00
             0.00000000000000000E+00   0.00000000000000000E+00   0.00000000000000000E+00   0.00000000000000000E+00   0.00000000000000000E+00
             0.00000000000000000E+00   0.00000000000000000E+00   0.00000000000000000E+00   0.00000000000000000E+00   0.00000000000000000E+00
             0.00000000000000000E+00   0.00000000000000000E+00   0.00000000000000000E+00   0.00000000000000000E+00   0.00000000000000000E+00
             0.00000000000000000E+00   0.00000000000000000E+00   0.00000000000000000E+00   0.00000000000000000E+00   0.00000000000000000E+00
             0.00000000000000000E+00   0.00000000000000000E+00   0.00000000000000000E+00   0.00000000000000000E+00   0.00000000000000000E+00
             0.00000000000000000E+00   0.00000000000000000E+00   0.00000000000000000E+00   0.00000000000000000E+00   0.00000000000000000E+00
             0.00000000000000000E+00   0.00000000000000000E+00   0.00000000000000000E+00   0.00000000000000000E+00   0.00000000000000000E+00
             0.00000000000000000E+00   0.00000000000000000E+00   0.00000000000000000E+00   0.00000000000000000E+00   0.00000000000000000E+00
             0.00000000000000000E+00   0.00000000000000000E+00   0.00000000000000000E+00   0.00000000000000000E+00   0.00000000000000000E+00
             0.00000000000000000E+00   0.00000000000000000E+00   0.00000000000000000E+00   0.00000000000000000E+00   0.00000000000000000E+00
             0.00000000000000000E+00   0.00000000000000000E+00   0.00000000000000000E+00   0.00000000000000000E+00   0.00000000000000000E+00
             0.00000000000000000E+00   0.00000000000000000E+00   0.00000000000000000E+00   0.00000000000000000E+00   0.00000000000000000E+00
             0.00000000000000000E+00   0.00000000000000000E+00   0.00000000000000000E+00   0.00000000000000000E+00   0.00000000000000000E+00
             0.00000000000000000E+00   0.00000000000000000E+00   0.00000000000000000E+00   0.00000000000000000E+00   0.00000000000000000E+00
             0.00000000000000000E+00   0.00000000000000000E+00   0.00000000000000000E+00   0.00000000000000000E+00   0.00000000000000000E+00
             0.00000000000000000E+00   0.00000000000000000E+00   0.00000000000000000E+00   0.00000000000000000E+00   0.00000000000000000E+00
             0.00000000000000000E+00   0.00000000000000000E+00   0.00000000000000000E+00   0.00000000000000000E+00   0.00000000000000000E+00
             0.00000000000000000E+00   0.00000000000000000E+00   0.00000000000000000E+00   0.00000000000000000E+00   0.00000000000000000E+00
             0.00000000000000000E+00   0.00000000000000000E+00   0.00000000000000000E+00   0.00000000000000000E+00   7.01719162999999942E+05
             7.01869162999999942E+05   7.02019162999999942E+05   7.02169162999999942E+05   7.02319162999999942E+05   7.02469162999999942E+05
             7.02619162999999942E+05   7.02769162999999942E+05   7.02919162999999942E+05   7.03069162999999942E+05   7.03219162999999942E+05
             7.03369162999999942E+05   7.03519162999999942E+05   7.03669162999999942E+05   7.03819162999999942E+05   7.03969162999999942E+05
             7.04119162999999942E+05   0.00000000000000000E+00   0.00000000000000000E+00   0.00000000000000000E+00   0.00000000000000000E+00
             0.00000000000000000E+00   0.00000000000000000E+00   0.00000000000000000E+00   0.00000000000000000E+00   0.00000000000000000E+00
             0.00000000000000000E+00   0.00000000000000000E+00   0.00000000000000000E+00   0.00000000000000000E+00   0.00000000000000000E+00
             0.00000000000000000E+00   0.00000000000000000E+00   0.00000000000000000E+00   0.00000000000000000E+00   0.00000000000000000E+00
             0.00000000000000000E+00   0.00000000000000000E+00   0.00000000000000000E+00   0.00000000000000000E+00   0.00000000000000000E+00
             0.00000000000000000E+00   0.00000000000000000E+00   0.00000000000000000E+00   0.00000000000000000E+00   0.00000000000000000E+00
             0.00000000000000000E+00   0.00000000000000000E+00   0.00000000000000000E+00   0.00000000000000000E+00   0.00000000000000000E+00
             0.00000000000000000E+00   0.00000000000000000E+00   0.00000000000000000E+00   0.00000000000000000E+00   0.00000000000000000E+00
             0.00000000000000000E+00   0.00000000000000000E+00   0.00000000000000000E+00   0.00000000000000000E+00   0.00000000000000000E+00
             0.00000000000000000E+00   0.00000000000000000E+00   0.00000000000000000E+00   0.00000000000000000E+00   0.00000000000000000E+00
             0.00000000000000000E+00   0.00000000000000000E+00   0.00000000000000000E+00   0.00000000000000000E+00   0.00000000000000000E+00
             0.00000000000000000E+00   0.00000000000000000E+00   0.00000000000000000E+00   0.00000000000000000E+00   0.00000000000000000E+00
             0.00000000000000000E+00   0.00000000000000000E+00   0.00000000000000000E+00   0.00000000000000000E+00   0.00000000000000000E+00
             0.00000000000000000E+00   0.00000000000000000E+00   0.00000000000000000E+00   0.00000000000000000E+00   0.00000000000000000E+00
             0.00000000000000000E+00   0.00000000000000000E+00   0.00000000000000000E+00   0.00000000000000000E+00   0.00000000000000000E+00
             0.00000000000000000E+00   0.00000000000000000E+00   0.00000000000000000E+00   0.00000000000000000E+00   0.00000000000000000E+00
             0.00000000000000000E+00   0.00000000000000000E+00   0.00000000000000000E+00   0.00000000000000000E+00   0.00000000000000000E+00
             0.00000000000000000E+00   0.00000000000000000E+00   0.00000000000000000E+00   0.00000000000000000E+00   0.00000000000000000E+00
             0.00000000000000000E+00   0.00000000000000000E+00   0.00000000000000000E+00   0.00000000000000000E+00   0.00000000000000000E+00
             0.00000000000000000E+00   0.00000000000000000E+00   0.00000000000000000E+00   0.00000000000000000E+00   0.00000000000000000E+00
             0.00000000000000000E+00   0.00000000000000000E+00   0.00000000000000000E+00   0.00000000000000000E+00   0.00000000000000000E+00
             0.00000000000000000E+00   0.00000000000000000E+00   0.00000000000000000E+00   0.00000000000000000E+00   0.00000000000000000E+00
             0.00000000000000000E+00   0.00000000000000000E+00   0.00000000000000000E+00   0.00000000000000000E+00   0.00000000000000000E+00
             0.00000000000000000E+00   0.00000000000000000E+00   0.00000000000000000E+00   0.00000000000000000E+00   0.00000000000000000E+00
             0.00000000000000000E+00   0.00000000000000000E+00   0.00000000000000000E+00   0.00000000000000000E+00   0.00000000000000000E+00
             0.00000000000000000E+00   0.00000000000000000E+00   0.00000000000000000E+00   0.00000000000000000E+00   0.00000000000000000E+00
             0.00000000000000000E+00   0.00000000000000000E+00
 ETA=    3   0.00000000000000000E+00   0.00000000000000000E+00   0.00000000000000000E+00   0.00000000000000000E+00   0.00000000000000000E+00
             0.00000000000000000E+00   0.00000000000000000E+00   0.00000000000000000E+00   0.00000000000000000E+00   0.00000000000000000E+00
             0.00000000000000000E+00   0.00000000000000000E+00   0.00000000000000000E+00   0.00000000000000000E+00   0.00000000000000000E+00
             0.00000000000000000E+00   0.00000000000000000E+00   0.00000000000000000E+00   0.00000000000000000E+00   0.00000000000000000E+00
             0.00000000000000000E+00   0.00000000000000000E+00   0.00000000000000000E+00   0.00000000000000000E+00   0.00000000000000000E+00
             0.00000000000000000E+00   0.00000000000000000E+00   0.00000000000000000E+00   0.00000000000000000E+00   0.00000000000000000E+00
             0.00000000000000000E+00   0.00000000000000000E+00   0.00000000000000000E+00   0.00000000000000000E+00   0.00000000000000000E+00
             0.00000000000000000E+00   0.00000000000000000E+00   0.00000000000000000E+00   0.00000000000000000E+00   0.00000000000000000E+00
             0.00000000000000000E+00   0.00000000000000000E+00   0.00000000000000000E+00   0.00000000000000000E+00   0.00000000000000000E+00
             0.00000000000000000E+00   0.00000000000000000E+00   0.00000000000000000E+00   0.00000000000000000E+00   0.00000000000000000E+00
             0.00000000000000000E+00   0.00000000000000000E+00   0.00000000000000000E+00   0.00000000000000000E+00   0.00000000000000000E+00
             0.00000000000000000E+00   0.00000000000000000E+00   0.00000000000000000E+00   0.00000000000000000E+00   0.00000000000000000E+00
             0.00000000000000000E+00   0.00000000000000000E+00   0.00000000000000000E+00   0.00000000000000000E+00   0.00000000000000000E+00
             0.00000000000000000E+00   0.00000000000000000E+00   0.00000000000000000E+00   0.00000000000000000E+00   0.00000000000000000E+00
             0.00000000000000000E+00   0.00000000000000000E+00   0.00000000000000000E+00   0.00000000000000000E+00   0.00000000000000000E+00
             0.00000000000000000E+00   0.00000000000000000E+00   0.00000000000000000E+00   0.00000000000000000E+00   0.00000000000000000E+00
             0.00000000000000000E+00   0.00000000000000000E+00   0.00000000000000000E+00   0.00000000000000000E+00   0.00000000000000000E+00
             0.00000000000000000E+00   0.00000000000000000E+00   0.00000000000000000E+00   0.00000000000000000E+00   0.00000000000000000E+00
             0.00000000000000000E+00   0.00000000000000000E+00   0.00000000000000000E+00   0.00000000000000000E+00   0.00000000000000000E+00
             7.00369162999999942E+05   7.00519162999999942E+05   7.00669162999999942E+05   7.00819162999999942E+05   7.00969162999999942E+05
             0.00000000000000000E+00   0.00000000000000000E+00   0.00000000000000000E+00   7.01569162999999942E+05   7.01719162999999942E+05
             7.01869162999999942E+05   7.02019162999999942E+05   7.02169162999999942E+05   7.02319162999999942E+05   7.02469162999999942E+05
             7.02619162999999942E+05   7.02769162999999942E+05   7.02919162999999942E+05   7.03069162999999942E+05   7.03219162999999942E+05
             7.03369162999999942E+05   7.03519162999999942E+05   7.03669162999999942E+05   7.03819162999999942E+05   7.03969162999999942E+05
             7.04119162999999942E+05   7.04269162999999942E+05   7.04419162999999942E+05   7.04569162999999942E+05   7.04719162999999942E+05
             7.04869162999999942E+05   0.00000000000000000E+00   0.00000000000000000E+00   0.00000000000000000E+00   0.00000000000000000E+00
             0.00000000000000000E+00   0.00000000000000000E+00   0.00000000000000000E+00   0.00000000000000000E+00   0.00000000000000000E+00
             0.00000000000000000E+00   0.00000000000000000E+00   0.00000000000000000E+00   0.00000000000000000E+00   0.00000000000000000E+00
             0.00000000000000000E+00   0.00000000000000000E+00   0.00000000000000000E+00   0.00000000000000000E+00   0.00000000000000000E+00
             0.00000000000000000E+00   0.00000000000000000E+00   0.00000000000000000E+00   0.00000000000000000E+00   0.00000000000000000E+00
             0.00000000000000000E+00   0.00000000000000000E+00   0.00000000000000000E+00   0.00000000000000000E+00   0.00000000000000000E+00
             0.00000000000000000E+00   0.00000000000000000E+00   0.00000000000000000E+00   0.00000000000000000E+00   0.00000000000000000E+00
             0.00000000000000000E+00   0.00000000000000000E+00   0.00000000000000000E+00   0.00000000000000000E+00   0.00000000000000000E+00
             0.00000000000000000E+00   0.00000000000000000E+00   0.00000000000000000E+00   0.00000000000000000E+00   0.00000000000000000E+00
             0.00000000000000000E+00   0.00000000000000000E+00   0.00000000000000000E+00   0.00000000000000000E+00   0.00000000000000000E+00
             0.00000000000000000E+00   0.00000000000000000E+00   0.00000000000000000E+00   0.00000000000000000E+00   0.00000000000000000E+00
             0.00000000000000000E+00   0.00000000000000000E+00   0.00000000000000000E+00   0.00000000000000000E+00   0.00000000000000000E+00
             0.00000000000000000E+00   0.00000000000000000E+00   0.00000000000000000E+00   0.00000000000000000E+00   0.00000000000000000E+00
             0.00000000000000000E+00   0.00000000000000000E+00   0.00000000000000000E+00   0.00000000000000000E+00   0.00000000000000000E+00
             0.00000000000000000E+00   0.00000000000000000E+00   0.00000000000000000E+00   0.00000000000000000E+00   0.00000000000000000E+00
             0.00000000000000000E+00   0.00000000000000000E+00   0.00000000000000000E+00   0.00000000000000000E+00   0.00000000000000000E+00
             0.00000000000000000E+00   0.00000000000000000E+00   0.00000000000000000E+00   0.00000000000000000E+00   0.00000000000000000E+00
             0.00000000000000000E+00   0.00000000000000000E+00   0.00000000000000000E+00   0.00000000000000000E+00   0.00000000000000000E+00
             0.00000000000000000E+00   0.00000000000000000E+00   0.00000000000000000E+00   0.00000000000000000E+00   0.00000000000000000E+00
             0.00000000000000000E+00   0.00000000000000000E+00   0.00000000000000000E+00   0.00000000000000000E+00   0.00000000000000000E+00
             0.00000000000000000E+00   0.00000000000000000E+00   0.00000000000000000E+00   0.00000000000000000E+00   0.00000000000000000E+00
             0.00000000000000000E+00   0.00000000000000000E+00   0.00000000000000000E+00   0.00000000000000000E+00   0.00000000000000000E+00
             0.00000000000000000E+00   0.00000000000000000E+00   0.00000000000000000E+00   0.00000000000000000E+00   0.00000000000000000E+00
             0.00000000000000000E+00   0.00000000000000000E+00   0.00000000000000000E+00   0.00000000000000000E+00   0.00000000000000000E+00
             0.00000000000000000E+00   0.00000000000000000E+00   0.00000000000000000E+00   0.00000000000000000E+00   0.00000000000000000E+00
             0.00000000000000000E+00   0.00000000000000000E+00
 ETA=    4   0.00000000000000000E+00   0.00000000000000000E+00   0.00000000000000000E+00   0.00000000000000000E+00   0.00000000000000000E+00
             0.00000000000000000E+00   0.00000000000000000E+00   0.00000000000000000E+00   0.00000000000000000E+00   0.00000000000000000E+00
             0.00000000000000000E+00   0.00000000000000000E+00   0.00000000000000000E+00   0.00000000000000000E+00   0.00000000000000000E+00
             0.00000000000000000E+00   0.00000000000000000E+00   0.00000000000000000E+00   0.00000000000000000E+00   0.00000000000000000E+00
             0.00000000000000000E+00   0.00000000000000000E+00   0.00000000000000000E+00   0.00000000000000000E+00   0.00000000000000000E+00
             0.00000000000000000E+00   0.00000000000000000E+00   0.00000000000000000E+00   0.00000000000000000E+00   0.00000000000000000E+00
             0.00000000000000000E+00   0.00000000000000000E+00   0.00000000000000000E+00   0.00000000000000000E+00   0.00000000000000000E+00
             0.00000000000000000E+00   0.00000000000000000E+00   0.00000000000000000E+00   0.00000000000000000E+00   0.00000000000000000E+00
             0.00000000000000000E+00   0.00000000000000000E+00   0.00000000000000000E+00   0.00000000000000000E+00   0.00000000000000000E+00
             0.00000000000000000E+00   0.00000000000000000E+00   0.00000000000000000E+00   0.00000000000000000E+00   0.00000000000000000E+00
             0.00000000000000000E+00   0.00000000000000000E+00   0.00000000000000000E+00   0.00000000000000000E+00   0.00000000000000000E+00
             0.00000000000000000E+00   0.00000000000000000E+00   0.00000000000000000E+00   0.00000000000000000E+00   0.00000000000000000E+00
             0.00000000000000000E+00   0.00000000000000000E+00   0.00000000000000000E+00   0.00000000000000000E+00   0.00000000000000000E+00
             0.00000000000000000E+00   0.00000000000000000E+00   0.00000000000000000E+00   0.00000000000000000E+00   0.00000000000000000E+00
             0.00000000000000000E+00   0.00000000000000000E+00   0.00000000000000000E+00   0.00000000000000000E+00   0.00000000000000000E+00
             0.00000000000000000E+00   0.00000000000000000E+00   0.00000000000000000E+00   0.00000000000000000E+00   0.00000000000000000E+00
             0.00000000000000000E+00   0.00000000000000000E+00   0.00000000000000000E+00   0.00000000000000000E+00   0.00000000000000000E+00
             0.00000000000000000E+00   0.00000000000000000E+00   0.00000000000000000E+00   0.00000000000000000E+00   0.00000000000000000E+00
             0.00000000000000000E+00   0.00000000000000000E+00   0.00000000000000000E+00   0.00000000000000000E+00   7.00219162999999942E+05
             7.00369162999999942E+05   7.00519162999999942E+05   7.00669162999999942E+05   7.00819162999999942E+05   7.00969162999999942E+05
             0.00000000000000000E+00   0.00000000000000000E+00   0.00000000000000000E+00   7.01569162999999942E+05   7.01719162999999942E+05
             7.01869162999999942E+05   7.02019162999999942E+05   7.02169162999999942E+05   7.02319162999999942E+05   7.02469162999999942E+05
             7.02619162999999942E+05   7.02769162999999942E+05   7.02919162999999942E+05   7.03069162999999942E+05   7.03219162999999942E+05
             7.03369162999999942E+05   7.03519162999999942E+05   7.03669162999999942E+05   7.03819162999999942E+05   7.03969162999999942E+05
             7.04119162999999942E+05   7.04269162999999942E+05   7.04419162999999942E+05   7.04569162999999942E+05   7.04719162999999942E+05
             7.04869162999999942E+05   7.05019162999999942E+05   7.05169162999999942E+05   0.00000000000000000E+00   0.00000000000000000E+00
             0.00000000000000000E+00   0.00000000000000000E+00   0.00000000000000000E+00   0.00000000000000000E+00   0.00000000000000000E+00
             0.00000000000000000E+00   0.00000000000000000E+00   0.00000000000000000E+00   0.00000000000000000E+00   0.00000000000000000E+00
             0.00000000000000000E+00   0.00000000000000000E+00   0.00000000000000000E+00   0.00000000000000000E+00   0.00000000000000000E+00
             0.00000000000000000E+00   0.00000000000000000E+00   0.00000000000000000E+00   0.00000000000000000E+00   0.00000000000000000E+00
             0.00000000000000000E+00   0.00000000000000000E+00   0.00000000000000000E+00   0.00000000000000000E+00   0.00000000000000000E+00
             0.00000000000000000E+00   0.00000000000000000E+00   0.00000000000000000E+00   0.00000000000000000E+00   0.00000000000000000E+00
             0.00000000000000000E+00   0.00000000000000000E+00   0.00000000000000000E+00   0.00000000000000000E+00   0.00000000000000000E+00
             0.00000000000000000E+00   0.00000000000000000E+00   0.00000000000000000E+00   0.00000000000000000E+00   0.00000000000000000E+00
             0.00000000000000000E+00   0.00000000000000000E+00   0.00000000000000000E+00   0.00000000000000000E+00   0.00000000000000000E+00
             0.00000000000000000E+00   0.00000000000000000E+00   0.00000000000000000E+00   0.00000000000000000E+00   0.00000000000000000E+00
             0.00000000000000000E+00   0.00000000000000000E+00   0.00000000000000000E+00   0.00000000000000000E+00   0.00000000000000000E+00
             0.00000000000000000E+00   0.00000000000000000E+00   0.00000000000000000E+00   0.00000000000000000E+00   0.00000000000000000E+00
             0.00000000000000000E+00   0.00000000000000000E+00   0.00000000000000000E+00   0.00000000000000000E+00   0.00000000000000000E+00
             0.00000000000000000E+00   0.00000000000000000E+00   0.00000000000000000E+00   0.00000000000000000E+00   0.00000000000000000E+00
             0.00000000000000000E+00   0.00000000000000000E+00   0.00000000000000000E+00   0.00000000000000000E+00   0.00000000000000000E+00
             0.00000000000000000E+00   0.00000000000000000E+00   0.00000000000000000E+00   0.00000000000000000E+00   0.00000000000000000E+00
             0.00000000000000000E+00   0.00000000000000000E+00   0.00000000000000000E+00   0.00000000000000000E+00   0.00000000000000000E+00
             0.00000000000000000E+00   0.00000000000000000E+00   0.00000000000000000E+00   0.00000000000000000E+00   0.00000000000000000E+00
             0.00000000000000000E+00   0.00000000000000000E+00   0.00000000000000000E+00   0.00000000000000000E+00   0.00000000000000000E+00
             0.00000000000000000E+00   0.00000000000000000E+00   0.00000000000000000E+00   0.00000000000000000E+00   0.00000000000000000E+00
             0.00000000000000000E+00   0.00000000000000000E+00   0.00000000000000000E+00   0.00000000000000000E+00   0.00000000000000000E+00
             0.00000000000000000E+00   0.00000000000000000E+00   0.00000000000000000E+00   0.00000000000000000E+00   0.00000000000000000E+00
             0.00000000000000000E+00   0.00000000000000000E+00   0.00000000000000000E+00   0.00000000000000000E+00   0.00000000000000000E+00
             0.00000000000000000E+00   0.00000000000000000E+00   0.00000000000000000E+00   0.00000000000000000E+00   0.00000000000000000E+00
             0.00000000000000000E+00   0.00000000000000000E+00
 ETA=    5   0.00000000000000000E+00   0.00000000000000000E+00   0.00000000000000000E+00   0.00000000000000000E+00   0.00000000000000000E+00
             0.00000000000000000E+00   0.00000000000000000E+00   0.00000000000000000E+00   0.00000000000000000E+00   0.00000000000000000E+00
             0.00000000000000000E+00   0.00000000000000000E+00   0.00000000000000000E+00   0.00000000000000000E+00   0.00000000000000000E+00
             0.00000000000000000E+00   0.00000000000000000E+00   0.00000000000000000E+00   0.00000000000000000E+00   0.00000000000000000E+00
             0.00000000000000000E+00   0.00000000000000000E+00   0.00000000000000000E+00   0.00000000000000000E+00   0.00000000000000000E+00
             0.00000000000000000E+00   0.00000000000000000E+00   0.00000000000000000E+00   0.00000000000000000E+00   0.00000000000000000E+00
             0.00000000000000000E+00   0.00000000000000000E+00   0.00000000000000000E+00   0.00000000000000000E+00   0.00000000000000000E+00
             0.00000000000000000E+00   0.00000000000000000E+00   0.00000000000000000E+00   0.00000000000000000E+00   0.00000000000000000E+00
             0.00000000000000000E+00   0.00000000000000000E+00   0.00000000000000000E+00   0.00000000000000000E+00   0.00000000000000000E+00
             0.00000000000000000E+00   0.00000000000000000E+00   0.00000000000000000E+00   0.00000000000000000E+00   0.00000000000000000E+00
             0.00000000000000000E+00   0.00000000000000000E+00   0.00000000000000000E+00   0.00000000000000000E+00   0.00000000000000000E+00
             0.00000000000000000E+00   0.00000000000000000E+00   0.00000000000000000E+00   0.00000000000000000E+00   0.00000000000000000E+00
             0.00000000000000000E+00   0.00000000000000000E+00   0.00000000000000000E+00   0.00000000000000000E+00   0.00000000000000000E+00
             0.00000000000000000E+00   0.00000000000000000E+00   0.00000000000000000E+00   0.00000000000000000E+00   0.00000000000000000E+00
             0.00000000000000000E+00   0.00000000000000000E+00   0.00000000000000000E+00   0.00000000000000000E+00   0.00000000000000000E+00
             0.00000000000000000E+00   0.00000000000000000E+00   0.00000000000000000E+00   0.00000000000000000E+00   0.00000000000000000E+00
             0.00000000000000000E+00   0.00000000000000000E+00   0.00000000000000000E+00   0.00000000000000000E+00   0.00000000000000000E+00
             0.00000000000000000E+00   0.00000000000000000E+00   0.00000000000000000E+00   0.00000000000000000E+00   0.00000000000000000E+00
             0.00000000000000000E+00   0.00000000000000000E+00   0.00000000000000000E+00   0.00000000000000000E+00   7.00219162999999942E+05
             7.00369162999999942E+05   7.00519162999999942E+05   7.00669162999999942E+05   7.00819162999999942E+05   7.00969162999999942E+05
             0.00000000000000000E+00   0.00000000000000000E+00   0.00000000000000000E+00   7.01569162999999942E+05   7.01719162999999942E+05
             7.01869162999999942E+05   7.02019162999999942E+05   7.02169162999999942E+05   7.02319162999999942E+05   7.02469162999999942E+05
             7.02619162999999942E+05   7.02769162999999942E+05   7.02919162999999942E+05   7.03069162999999942E+05   7.03219162999999942E+05
             7.03369162999999942E+05   7.03519162999999942E+05   7.03669162999999942E+05   7.03819162999999942E+05   7.03969162999999942E+05
             7.04119162999999942E+05   7.04269162999999942E+05   7.04419162999999942E+05   7.04569162999999942E+05   7.04719162999999942E+05
             7.04869162999999942E+05   7.05019162999999942E+05   7.05169162999999942E+05   7.05319162999999942E+05   7.05469162999999942E+05
             0.00000000000000000E+00   0.00000000000000000E+00   0.00000000000000000E+00   0.00000000000000000E+00   0.00000000000000000E+00
             0.00000000000000000E+00   0.00000000000000000E+00   0.00000000000000000E+00   0.00000000000000000E+00   0.00000000000000000E+00
             0.00000000000000000E+00   0.00000000000000000E+00   0.00000000000000000E+00   0.00000000000000000E+00   0.00000000000000000E+00
             0.00000000000000000E+00   0.00000000000000000E+00   0.00000000000000000E+00   0.00000000000000000E+00   0.00000000000000000E+00
             0.00000000000000000E+00   0.00000000000000000E+00   0.00000000000000000E+00   0.00000000000000000E+00   0.00000000000000000E+00
             0.00000000000000000E+00   0.00000000000000000E+00   0.00000000000000000E+00   0.00000000000000000E+00   0.00000000000000000E+00
             0.00000000000000000E+00   0.00000000000000000E+00   0.00000000000000000E+00   0.00000000000000000E+00   0.00000000000000000E+00
             0.00000000000000000E+00   0.00000000000000000E+00   0.00000000000000000E+00   0.00000000000000000E+00   0.00000000000000000E+00
             0.00000000000000000E+00   0.00000000000000000E+00   0.00000000000000000E+00   0.00000000000000000E+00   0.00000000000000000E+00
             0.00000000000000000E+00   0.00000000000000000E+00   0.00000000000000000E+00   0.00000000000000000E+00   0.00000000000000000E+00
             0.00000000000000000E+00   0.00000000000000000E+00   0.00000000000000000E+00   0.00000000000000000E+00   0.00000000000000000E+00
             0.00000000000000000E+00   0.00000000000000000E+00   0.00000000000000000E+00   0.00000000000000000E+00   0.00000000000000000E+00
             0.00000000000000000E+00   0.00000000000000000E+00   0.00000000000000000E+00   0.00000000000000000E+00   0.00000000000000000E+00
             0.00000000000000000E+00   0.00000000000000000E+00   0.00000000000000000E+00   0.00000000000000000E+00   0.00000000000000000E+00
             0.00000000000000000E+00   0.00000000000000000E+00   0.00000000000000000E+00   0.00000000000000000E+00   0.00000000000000000E+00
             0.00000000000000000E+00   0.00000000000000000E+00   0.00000000000000000E+00   0.00000000000000000E+00   0.00000000000000000E+00
             0.00000000000000000E+00   0.00000000000000000E+00   0.00000000000000000E+00   0.00000000000000000E+00   0.00000000000000000E+00
             0.00000000000000000E+00   0.00000000000000000E+00   0.00000000000000000E+00   0.00000000000000000E+00   0.00000000000000000E+00
             0.00000000000000000E+00   0.00000000000000000E+00   0.00000000000000000E+00   0.00000000000000000E+00   0.00000000000000000E+00
             0.00000000000000000E+00   0.00000000000000000E+00   0.00000000000000000E+00   0.00000000000000000E+00   0.00000000000000000E+00
             0.00000000000000000E+00   0.00000000000000000E+00   0.00000000000000000E+00   0.00000000000000000E+00   0.00000000000000000E+00
             0.00000000000000000E+00   0.00000000000000000E+00   0.00000000000000000E+00   0.00000000000000000E+00   0.00000000000000000E+00
             0.00000000000000000E+00   0.00000000000000000E+00   0.00000000000000000E+00   0.00000000000000000E+00   0.00000000000000000E+00
             0.00000000000000000E+00   0.00000000000000000E+00   0.00000000000000000E+00   0.00000000000000000E+00   0.00000000000000000E+00
             0.00000000000000000E+00   0.00000000000000000E+00
 ETA=    6   0.00000000000000000E+00   0.00000000000000000E+00   0.00000000000000000E+00   0.00000000000000000E+00   0.00000000000000000E+00
             0.00000000000000000E+00   0.00000000000000000E+00   0.00000000000000000E+00   0.00000000000000000E+00   0.00000000000000000E+00
             0.00000000000000000E+00   0.00000000000000000E+00   0.00000000000000000E+00   0.00000000000000000E+00   0.00000000000000000E+00
             0.00000000000000000E+00   0.00000000000000000E+00   0.00000000000000000E+00   0.00000000000000000E+00   0.00000000000000000E+00
             0.00000000000000000E+00   0.00000000000000000E+00   0.00000000000000000E+00   0.00000000000000000E+00   0.00000000000000000E+00
             0.00000000000000000E+00   0.00000000000000000E+00   0.00000000000000000E+00   0.00000000000000000E+00   0.00000000000000000E+00
             0.00000000000000000E+00   0.00000000000000000E+00   0.00000000000000000E+00   0.00000000000000000E+00   0.00000000000000000E+00
             0.00000000000000000E+00   0.00000000000000000E+00   0.00000000000000000E+00   0.00000000000000000E+00   0.00000000000000000E+00
             0.00000000000000000E+00   0.00000000000000000E+00   0.00000000000000000E+00   0.00000000000000000E+00   0.00000000000000000E+00
             0.00000000000000000E+00   0.00000000000000000E+00   0.00000000000000000E+00   0.00000000000000000E+00   0.00000000000000000E+00
             0.00000000000000000E+00   0.00000000000000000E+00   0.00000000000000000E+00   0.00000000000000000E+00   0.00000000000000000E+00
             0.00000000000000000E+00   0.00000000000000000E+00   0.00000000000000000E+00   0.00000000000000000E+00   0.00000000000000000E+00
             0.00000000000000000E+00   0.00000000000000000E+00   0.00000000000000000E+00   0.00000000000000000E+00   0.00000000000000000E+00
             0.00000000000000000E+00   0.00000000000000000E+00   0.00000000000000000E+00   0.00000000000000000E+00   0.00000000000000000E+00
             0.00000000000000000E+00   0.00000000000000000E+00   0.00000000000000000E+00   0.00000000000000000E+00   0.00000000000000000E+00
             0.00000000000000000E+00   0.00000000000000000E+00   0.00000000000000000E+00   0.00000000000000000E+00   0.00000000000000000E+00
             0.00000000000000000E+00   0.00000000000000000E+00   0.00000000000000000E+00   0.00000000000000000E+00   0.00000000000000000E+00
             0.00000000000000000E+00   0.00000000000000000E+00   0.00000000000000000E+00   0.00000000000000000E+00   0.00000000000000000E+00
             0.00000000000000000E+00   0.00000000000000000E+00   0.00000000000000000E+00   7.00069162999999942E+05   7.00219162999999942E+05
             7.00369162999999942E+05   7.00519162999999942E+05   7.00669162999999942E+05   7.00819162999999942E+05   7.00969162999999942E+05
             0.00000000000000000E+00   0.00000000000000000E+00   0.00000000000000000E+00   7.01569162999999942E+05   7.01719162999999942E+05
             7.01869162999999942E+05   7.02019162999999942E+05   7.02169162999999942E+05   7.02319162999999942E+05   7.02469162999999942E+05
             7.02619162999999942E+05   7.02769162999999942E+05   7.02919162999999942E+05   7.03069162999999942E+05   7.03219162999999942E+05
             7.03369162999999942E+05   7.03519162999999942E+05   7.03669162999999942E+05   7.03819162999999942E+05   7.03969162999999942E+05
             7.04119162999999942E+05   7.04269162999999942E+05   7.04419162999999942E+05   7.04569162999999942E+05   7.04719162999999942E+05
             7.04869162999999942E+05   7.05019162999999942E+05   7.05169162999999942E+05   7.05319162999999942E+05   7.05469162999999942E+05
             7.05619162999999942E+05   0.00000000000000000E+00   0.00000000000000000E+00   0.00000000000000000E+00   0.00000000000000000E+00
             0.00000000000000000E+00   0.00000000000000000E+00   0.00000000000000000E+00   0.00000000000000000E+00   0.00000000000000000E+00
             0.00000000000000000E+00   0.00000000000000000E+00   0.00000000000000000E+00   0.00000000000000000E+00   0.00000000000000000E+00
             0.00000000000000000E+00   0.00000000000000000E+00   0.00000000000000000E+00   0.00000000000000000E+00   0.00000000000000000E+00
             0.00000000000000000E+00   0.00000000000000000E+00   0.00000000000000000E+00   0.00000000000000000E+00   0.00000000000000000E+00
             0.00000000000000000E+00   0.00000000000000000E+00   0.00000000000000000E+00   0.00000000000000000E+00   0.00000000000000000E+00
             0.00000000000000000E+00   0.00000000000000000E+00   0.00000000000000000E+00   0.00000000000000000E+00   0.00000000000000000E+00
             0.00000000000000000E+00   0.00000000000000000E+00   0.00000000000000000E+00   0.00000000000000000E+00   0.00000000000000000E+00
             0.00000000000000000E+00   0.00000000000000000E+00   0.00000000000000000E+00   0.00000000000000000E+00   0.00000000000000000E+00
             0.00000000000000000E+00   0.00000000000000000E+00   0.00000000000000000E+00   0.00000000000000000E+00   0.00000000000000000E+00
             0.00000000000000000E+00   0.00000000000000000E+00   0.00000000000000000E+00   0.00000000000000000E+00   0.00000000000000000E+00
             0.00000000000000000E+00   0.00000000000000000E+00   0.00000000000000000E+00   0.00000000000000000E+00   0.00000000000000000E+00
             0.00000000000000000E+00   0.00000000000000000E+00   0.00000000000000000E+00   0.00000000000000000E+00   0.00000000000000000E+00
             0.00000000000000000E+00   0.00000000000000000E+00   0.00000000000000000E+00   0.00000000000000000E+00   0.00000000000000000E+00
             0.00000000000000000E+00   0.00000000000000000E+00   0.00000000000000000E+00   0.00000000000000000E+00   0.00000000000000000E+00
             0.00000000000000000E+00   0.00000000000000000E+00   0.00000000000000000E+00   0.00000000000000000E+00   0.00000000000000000E+00
             0.00000000000000000E+00   0.00000000000000000E+00   0.00000000000000000E+00   0.00000000000000000E+00   0.00000000000000000E+00
             0.00000000000000000E+00   0.00000000000000000E+00   0.00000000000000000E+00   0.00000000000000000E+00   0.00000000000000000E+00
             0.00000000000000000E+00   0.00000000000000000E+00   0.00000000000000000E+00   0.00000000000000000E+00   0.00000000000000000E+00
             0.00000000000000000E+00   0.00000000000000000E+00   0.00000000000000000E+00   0.00000000000000000E+00   0.00000000000000000E+00
             0.00000000000000000E+00   0.00000000000000000E+00   0.00000000000000000E+00   0.00000000000000000E+00   0.00000000000000000E+00
             0.00000000000000000E+00   0.00000000000000000E+00   0.00000000000000000E+00   0.00000000000000000E+00   0.00000000000000000E+00
             0.00000000000000000E+00   0.00000000000000000E+00   0.00000000000000000E+00   0.00000000000000000E+00   0.00000000000000000E+00
             0.00000000000000000E+00   0.00000000000000000E+00   0.00000000000000000E+00   0.00000000000000000E+00   0.00000000000000000E+00
             0.00000000000000000E+00   0.00000000000000000E+00
 ETA=    7   0.00000000000000000E+00   0.00000000000000000E+00   0.00000000000000000E+00   0.00000000000000000E+00   0.00000000000000000E+00
             0.00000000000000000E+00   0.00000000000000000E+00   0.00000000000000000E+00   0.00000000000000000E+00   0.00000000000000000E+00
             0.00000000000000000E+00   0.00000000000000000E+00   0.00000000000000000E+00   0.00000000000000000E+00   0.00000000000000000E+00
             0.00000000000000000E+00   0.00000000000000000E+00   0.00000000000000000E+00   0.00000000000000000E+00   0.00000000000000000E+00
             0.00000000000000000E+00   0.00000000000000000E+00   0.00000000000000000E+00   0.00000000000000000E+00   0.00000000000000000E+00
             0.00000000000000000E+00   0.00000000000000000E+00   0.00000000000000000E+00   0.00000000000000000E+00   0.00000000000000000E+00
             0.00000000000000000E+00   0.00000000000000000E+00   0.00000000000000000E+00   0.00000000000000000E+00   0.00000000000000000E+00
             0.00000000000000000E+00   0.00000000000000000E+00   0.00000000000000000E+00   0.00000000000000000E+00   0.00000000000000000E+00
             0.00000000000000000E+00   0.00000000000000000E+00   0.00000000000000000E+00   0.00000000000000000E+00   0.00000000000000000E+00
             0.00000000000000000E+00   0.00000000000000000E+00   0.00000000000000000E+00   0.00000000000000000E+00   0.00000000000000000E+00
             0.00000000000000000E+00   0.00000000000000000E+00   0.00000000000000000E+00   0.00000000000000000E+00   0.00000000000000000E+00
             0.00000000000000000E+00   0.00000000000000000E+00   0.00000000000000000E+00   0.00000000000000000E+00   0.00000000000000000E+00
             0.00000000000000000E+00   0.00000000000000000E+00   0.00000000000000000E+00   0.00000000000000000E+00   0.00000000000000000E+00
             0.00000000000000000E+00   0.00000000000000000E+00   0.00000000000000000E+00   0.00000000000000000E+00   0.00000000000000000E+00
             0.00000000000000000E+00   0.00000000000000000E+00   0.00000000000000000E+00   0.00000000000000000E+00   0.00000000000000000E+00
             0.00000000000000000E+00   0.00000000000000000E+00   0.00000000000000000E+00   0.00000000000000000E+00   0.00000000000000000E+00
             0.00000000000000000E+00   0.00000000000000000E+00   0.00000000000000000E+00   0.00000000000000000E+00   0.00000000000000000E+00
             0.00000000000000000E+00   0.00000000000000000E+00   0.00000000000000000E+00   0.00000000000000000E+00   0.00000000000000000E+00
             0.00000000000000000E+00   0.00000000000000000E+00   0.00000000000000000E+00   7.00069162999999942E+05   7.00219162999999942E+05
             7.00369162999999942E+05   7.00519162999999942E+05   7.00669162999999942E+05   7.00819162999999942E+05   7.00969162999999942E+05
             7.01119162999999942E+05   7.01269162999999942E+05   7.01419162999999942E+05   7.01569162999999942E+05   7.01719162999999942E+05
             7.01869162999999942E+05   7.02019162999999942E+05   7.02169162999999942E+05   7.02319162999999942E+05   7.02469162999999942E+05
             7.02619162999999942E+05   7.02769162999999942E+05   7.02919162999999942E+05   7.03069162999999942E+05   7.03219162999999942E+05
             7.03369162999999942E+05   7.03519162999999942E+05   7.03669162999999942E+05   7.03819162999999942E+05   7.03969162999999942E+05
             7.04119162999999942E+05   7.04269162999999942E+05   7.04419162999999942E+05   7.04569162999999942E+05   7.04719162999999942E+05
             7.04869162999999942E+05   7.05019162999999942E+05   7.05169162999999942E+05   7.05319162999999942E+05   7.05469162999999942E+05
             7.05619162999999942E+05   7.05769162999999942E+05   7.05919162999999942E+05   7.06069162999999942E+05   0.00000000000000000E+00
             0.00000000000000000E+00   0.00000000000000000E+00   0.00000000000000000E+00   0.00000000000000000E+00   0.00000000000000000E+00
             0.00000000000000000E+00   0.00000000000000000E+00   0.00000000000000000E+00   0.00000000000000000E+00   0.00000000000000000E+00
             0.00000000000000000E+00   0.00000000000000000E+00   0.00000000000000000E+00   0.00000000000000000E+00   0.00000000000000000E+00
             0.00000000000000000E+00   0.00000000000000000E+00   0.00000000000000000E+00   0.00000000000000000E+00   0.00000000000000000E+00
             0.00000000000000000E+00   0.00000000000000000E+00   0.00000000000000000E+00   0.00000000000000000E+00   0.00000000000000000E+00
             0.00000000000000000E+00   0.00000000000000000E+00   0.00000000000000000E+00   0.00000000000000000E+00   0.00000000000000000E+00
             0.00000000000000000E+00   0.00000000000000000E+00   0.00000000000000000E+00   0.00000000000000000E+00   0.00000000000000000E+00
             0.00000000000000000E+00   0.00000000000000000E+00   0.00000000000000000E+00   0.00000000000000000E+00   0.00000000000000000E+00
             0.00000000000000000E+00   0.00000000000000000E+00   0.00000000000000000E+00   0.00000000000000000E+00   0.00000000000000000E+00
             0.00000000000000000E+00   0.00000000000000000E+00   0.00000000000000000E+00   0.00000000000000000E+00   0.00000000000000000E+00
             0.00000000000000000E+00   0.00000000000000000E+00   0.00000000000000000E+00   0.00000000000000000E+00   0.00000000000000000E+00
             0.00000000000000000E+00   0.00000000000000000E+00   0.00000000000000000E+00   0.00000000000000000E+00   0.00000000000000000E+00
             0.00000000000000000E+00   0.00000000000000000E+00   0.00000000000000000E+00   0.00000000000000000E+00   0.00000000000000000E+00
             0.00000000000000000E+00   0.00000000000000000E+00   0.00000000000000000E+00   0.00000000000000000E+00   0.00000000000000000E+00
             0.00000000000000000E+00   0.00000000000000000E+00   0.00000000000000000E+00   0.00000000000000000E+00   0.00000000000000000E+00
             0.00000000000000000E+00   0.00000000000000000E+00   0.00000000000000000E+00   0.00000000000000000E+00   0.00000000000000000E+00
             0.00000000000000000E+00   0.00000000000000000E+00   0.00000000000000000E+00   0.00000000000000000E+00   0.00000000000000000E+00
             0.00000000000000000E+00   0.00000000000000000E+00   0.00000000000000000E+00   0.00000000000000000E+00   0.00000000000000000E+00
             0.00000000000000000E+00   0.00000000000000000E+00   0.00000000000000000E+00   0.00000000000000000E+00   0.00000000000000000E+00
             0.00000000000000000E+00   0.00000000000000000E+00   0.00000000000000000E+00   0.00000000000000000E+00   0.00000000000000000E+00
             0.00000000000000000E+00   0.00000000000000000E+00   0.00000000000000000E+00   0.00000000000000000E+00   0.00000000000000000E+00
             0.00000000000000000E+00   0.00000000000000000E+00   0.00000000000000000E+00   0.00000000000000000E+00   0.00000000000000000E+00
             0.00000000000000000E+00   0.00000000000000000E+00   0.00000000000000000E+00   0.00000000000000000E+00   0.00000000000000000E+00
             0.00000000000000000E+00   0.00000000000000000E+00
 ETA=    8   0.00000000000000000E+00   0.00000000000000000E+00   0.00000000000000000E+00   0.00000000000000000E+00   0.00000000000000000E+00
             0.00000000000000000E+00   0.00000000000000000E+00   0.00000000000000000E+00   0.00000000000000000E+00   0.00000000000000000E+00
             0.00000000000000000E+00   0.00000000000000000E+00   0.00000000000000000E+00   0.00000000000000000E+00   0.00000000000000000E+00
             0.00000000000000000E+00   0.00000000000000000E+00   0.00000000000000000E+00   0.00000000000000000E+00   0.00000000000000000E+00
             0.00000000000000000E+00   0.00000000000000000E+00   0.00000000000000000E+00   0.00000000000000000E+00   0.00000000000000000E+00
             0.00000000000000000E+00   0.00000000000000000E+00   0.00000000000000000E+00   0.00000000000000000E+00   0.00000000000000000E+00
             0.00000000000000000E+00   0.00000000000000000E+00   0.00000000000000000E+00   0.00000000000000000E+00   0.00000000000000000E+00
             0.00000000000000000E+00   0.00000000000000000E+00   0.00000000000000000E+00   0.00000000000000000E+00   0.00000000000000000E+00
             0.00000000000000000E+00   0.00000000000000000E+00   0.00000000000000000E+00   0.00000000000000000E+00   0.00000000000000000E+00
             0.00000000000000000E+00   0.00000000000000000E+00   0.00000000000000000E+00   0.00000000000000000E+00   0.00000000000000000E+00
             0.00000000000000000E+00   0.00000000000000000E+00   0.00000000000000000E+00   0.00000000000000000E+00   0.00000000000000000E+00
             0.00000000000000000E+00   0.00000000000000000E+00   0.00000000000000000E+00   0.00000000000000000E+00   0.00000000000000000E+00
             0.00000000000000000E+00   0.00000000000000000E+00   0.00000000000000000E+00   0.00000000000000000E+00   0.00000000000000000E+00
             0.00000000000000000E+00   0.00000000000000000E+00   0.00000000000000000E+00   0.00000000000000000E+00   0.00000000000000000E+00
             0.00000000000000000E+00   0.00000000000000000E+00   0.00000000000000000E+00   0.00000000000000000E+00   0.00000000000000000E+00
             0.00000000000000000E+00   0.00000000000000000E+00   0.00000000000000000E+00   0.00000000000000000E+00   0.00000000000000000E+00
             0.00000000000000000E+00   0.00000000000000000E+00   0.00000000000000000E+00   0.00000000000000000E+00   0.00000000000000000E+00
             0.00000000000000000E+00   0.00000000000000000E+00   0.00000000000000000E+00   0.00000000000000000E+00   0.00000000000000000E+00
             0.00000000000000000E+00   0.00000000000000000E+00   0.00000000000000000E+00   7.00069162999999942E+05   7.00219162999999942E+05
             7.00369162999999942E+05   7.00519162999999942E+05   7.00669162999999942E+05   7.00819162999999942E+05   7.00969162999999942E+05
             7.01119162999999942E+05   7.01269162999999942E+05   7.01419162999999942E+05   7.01569162999999942E+05   7.01719162999999942E+05
             7.01869162999999942E+05   7.02019162999999942E+05   7.02169162999999942E+05   7.02319162999999942E+05   7.02469162999999942E+05
             7.02619162999999942E+05   7.02769162999999942E+05   7.02919162999999942E+05   7.03069162999999942E+05   7.03219162999999942E+05
             7.03369162999999942E+05   7.03519162999999942E+05   7.03669162999999942E+05   7.03819162999999942E+05   7.03969162999999942E+05
             7.04119162999999942E+05   7.04269162999999942E+05   7.04419162999999942E+05   7.04569162999999942E+05   7.04719162999999942E+05
             7.04869162999999942E+05   7.05019162999999942E+05   7.05169162999999942E+05   7.05319162999999942E+05   7.05469162999999942E+05
             7.05619162999999942E+05   7.05769162999999942E+05   7.05919162999999942E+05   7.06069162999999942E+05   7.06219162999999942E+05
             7.06369162999999942E+05   0.00000000000000000E+00   0.00000000000000000E+00   0.00000000000000000E+00   0.00000000000000000E+00
             0.00000000000000000E+00   0.00000000000000000E+00   0.00000000000000000E+00   0.00000000000000000E+00   0.00000000000000000E+00
             0.00000000000000000E+00   0.00000000000000000E+00   0.00000000000000000E+00   0.00000000000000000E+00   0.00000000000000000E+00
             0.00000000000000000E+00   0.00000000000000000E+00   0.00000000000000000E+00   0.00000000000000000E+00   0.00000000000000000E+00
             0.00000000000000000E+00   0.00000000000000000E+00   0.00000000000000000E+00   0.00000000000000000E+00   0.00000000000000000E+00
             0.00000000000000000E+00   0.00000000000000000E+00   0.00000000000000000E+00   0.00000000000000000E+00   0.00000000000000000E+00
             0.00000000000000000E+00   0.00000000000000000E+00   0.00000000000000000E+00   0.00000000000000000E+00   0.00000000000000000E+00
             0.00000000000000000E+00   0.00000000000000000E+00   0.00000000000000000E+00   0.00000000000000000E+00   0.00000000000000000E+00
             0.00000000000000000E+00   0.00000000000000000E+00   0.00000000000000000E+00   0.00000000000000000E+00   0.00000000000000000E+00
             0.00000000000000000E+00   0.00000000000000000E+00   0.00000000000000000E+00   0.00000000000000000E+00   0.00000000000000000E+00
             0.00000000000000000E+00   0.00000000000000000E+00   0.00000000000000000E+00   0.00000000000000000E+00   0.00000000000000000E+00
             0.00000000000000000E+00   0.00000000000000000E+00   0.00000000000000000E+00   0.00000000000000000E+00   0.00000000000000000E+00
             0.00000000000000000E+00   0.00000000000000000E+00   0.00000000000000000E+00   0.00000000000000000E+00   0.00000000000000000E+00
             0.00000000000000000E+00   0.00000000000000000E+00   0.00000000000000000E+00   0.00000000000000000E+00   0.00000000000000000E+00
             0.00000000000000000E+00   0.00000000000000000E+00   0.00000000000000000E+00   0.00000000000000000E+00   0.00000000000000000E+00
             0.00000000000000000E+00   0.00000000000000000E+00   0.00000000000000000E+00   0.00000000000000000E+00   0.00000000000000000E+00
             0.00000000000000000E+00   0.00000000000000000E+00   0.00000000000000000E+00   0.00000000000000000E+00   0.00000000000000000E+00
             0.00000000000000000E+00   0.00000000000000000E+00   0.00000000000000000E+00   0.00000000000000000E+00   0.00000000000000000E+00
             0.00000000000000000E+00   0.00000000000000000E+00   0.00000000000000000E+00   0.00000000000000000E+00   0.00000000000000000E+00
             0.00000000000000000E+00   0.00000000000000000E+00   0.00000000000000000E+00   0.00000000000000000E+00   0.00000000000000000E+00
             0.00000000000000000E+00   0.00000000000000000E+00   0.00000000000000000E+00   0.00000000000000000E+00   0.00000000000000000E+00
             0.00000000000000000E+00   0.00000000000000000E+00   0.00000000000000000E+00   0.00000000000000000E+00   0.00000000000000000E+00
             0.00000000000000000E+00   0.00000000000000000E+00   0.00000000000000000E+00   0.00000000000000000E+00   0.00000000000000000E+00
             0.00000000000000000E+00   0.00000000000000000E+00
 ETA=    9   0.00000000000000000E+00   0.00000000000000000E+00   0.00000000000000000E+00   0.00000000000000000E+00   0.00000000000000000E+00
             0.00000000000000000E+00   0.00000000000000000E+00   0.00000000000000000E+00   0.00000000000000000E+00   0.00000000000000000E+00
             0.00000000000000000E+00   0.00000000000000000E+00   0.00000000000000000E+00   0.00000000000000000E+00   0.00000000000000000E+00
             0.00000000000000000E+00   0.00000000000000000E+00   0.00000000000000000E+00   0.00000000000000000E+00   0.00000000000000000E+00
             0.00000000000000000E+00   0.00000000000000000E+00   0.00000000000000000E+00   0.00000000000000000E+00   0.00000000000000000E+00
             0.00000000000000000E+00   0.00000000000000000E+00   0.00000000000000000E+00   0.00000000000000000E+00   0.00000000000000000E+00
             0.00000000000000000E+00   0.00000000000000000E+00   0.00000000000000000E+00   0.00000000000000000E+00   0.00000000000000000E+00
             0.00000000000000000E+00   0.00000000000000000E+00   0.00000000000000000E+00   0.00000000000000000E+00   0.00000000000000000E+00
             0.00000000000000000E+00   0.00000000000000000E+00   0.00000000000000000E+00   0.00000000000000000E+00   0.00000000000000000E+00
             0.00000000000000000E+00   0.00000000000000000E+00   0.00000000000000000E+00   0.00000000000000000E+00   0.00000000000000000E+00
             0.00000000000000000E+00   0.00000000000000000E+00   0.00000000000000000E+00   0.00000000000000000E+00   0.00000000000000000E+00
             0.00000000000000000E+00   0.00000000000000000E+00   0.00000000000000000E+00   0.00000000000000000E+00   0.00000000000000000E+00
             0.00000000000000000E+00   0.00000000000000000E+00   0.00000000000000000E+00   0.00000000000000000E+00   0.00000000000000000E+00
             0.00000000000000000E+00   0.00000000000000000E+00   0.00000000000000000E+00   0.00000000000000000E+00   0.00000000000000000E+00
             0.00000000000000000E+00   0.00000000000000000E+00   0.00000000000000000E+00   0.00000000000000000E+00   0.00000000000000000E+00
             0.00000000000000000E+00   0.00000000000000000E+00   0.00000000000000000E+00   0.00000000000000000E+00   0.00000000000000000E+00
             0.00000000000000000E+00   0.00000000000000000E+00   0.00000000000000000E+00   0.00000000000000000E+00   0.00000000000000000E+00
             0.00000000000000000E+00   0.00000000000000000E+00   0.00000000000000000E+00   0.00000000000000000E+00   0.00000000000000000E+00
             0.00000000000000000E+00   0.00000000000000000E+00   0.00000000000000000E+00   7.00069162999999942E+05   7.00219162999999942E+05
             7.00369162999999942E+05   7.00519162999999942E+05   7.00669162999999942E+05   7.00819162999999942E+05   7.00969162999999942E+05
             7.01119162999999942E+05   7.01269162999999942E+05   7.01419162999999942E+05   7.01569162999999942E+05   7.01719162999999942E+05
             7.01869162999999942E+05   7.02019162999999942E+05   7.02169162999999942E+05   7.02319162999999942E+05   7.02469162999999942E+05
             7.02619162999999942E+05   7.02769162999999942E+05   7.02919162999999942E+05   7.03069162999999942E+05   7.03219162999999942E+05
             7.03369162999999942E+05   7.03519162999999942E+05   7.03669162999999942E+05   7.03819162999999942E+05   7.03969162999999942E+05
             7.04119162999999942E+05   7.04269162999999942E+05   7.04419162999999942E+05   7.04569162999999942E+05   7.04719162999999942E+05
             7.04869162999999942E+05   7.05019162999999942E+05   7.05169162999999942E+05   7.05319162999999942E+05   7.05469162999999942E+05
             7.05619162999999942E+05   7.05769162999999942E+05   7.05919162999999942E+05   7.06069162999999942E+05   7.06219162999999942E+05
             7.06369162999999942E+05   0.00000000000000000E+00   0.00000000000000000E+00   0.00000000000000000E+00   0.00000000000000000E+00
             0.00000000000000000E+00   0.00000000000000000E+00   0.00000000000000000E+00   0.00000000000000000E+00   0.00000000000000000E+00
             0.00000000000000000E+00   0.00000000000000000E+00   0.00000000000000000E+00   0.00000000000000000E+00   0.00000000000000000E+00
             0.00000000000000000E+00   0.00000000000000000E+00   0.00000000000000000E+00   0.00000000000000000E+00   0.00000000000000000E+00
             0.00000000000000000E+00   0.00000000000000000E+00   0.00000000000000000E+00   0.00000000000000000E+00   0.00000000000000000E+00
             0.00000000000000000E+00   0.00000000000000000E+00   0.00000000000000000E+00   0.00000000000000000E+00   0.00000000000000000E+00
             0.00000000000000000E+00   0.00000000000000000E+00   0.00000000000000000E+00   0.00000000000000000E+00   0.00000000000000000E+00
             0.00000000000000000E+00   0.00000000000000000E+00   0.00000000000000000E+00   0.00000000000000000E+00   0.00000000000000000E+00
             0.00000000000000000E+00   0.00000000000000000E+00   0.00000000000000000E+00   0.00000000000000000E+00   0.00000000000000000E+00
             0.00000000000000000E+00   0.00000000000000000E+00   0.00000000000000000E+00   0.00000000000000000E+00   0.00000000000000000E+00
             0.00000000000000000E+00   0.00000000000000000E+00   0.00000000000000000E+00   0.00000000000000000E+00   0.00000000000000000E+00
             0.00000000000000000E+00   0.00000000000000000E+00   0.00000000000000000E+00   0.00000000000000000E+00   0.00000000000000000E+00
             0.00000000000000000E+00   0.00000000000000000E+00   0.00000000000000000E+00   0.00000000000000000E+00   0.00000000000000000E+00
             0.00000000000000000E+00   0.00000000000000000E+00   0.00000000000000000E+00   0.00000000000000000E+00   0.00000000000000000E+00
             0.00000000000000000E+00   0.00000000000000000E+00   0.00000000000000000E+00   0.00000000000000000E+00   0.00000000000000000E+00
             0.00000000000000000E+00   0.00000000000000000E+00   0.00000000000000000E+00   0.00000000000000000E+00   0.00000000000000000E+00
             0.00000000000000000E+00   0.00000000000000000E+00   0.00000000000000000E+00   0.00000000000000000E+00   0.00000000000000000E+00
             0.00000000000000000E+00   0.00000000000000000E+00   0.00000000000000000E+00   0.00000000000000000E+00   0.00000000000000000E+00
             0.00000000000000000E+00   0.00000000000000000E+00   0.00000000000000000E+00   0.00000000000000000E+00   0.00000000000000000E+00
             0.00000000000000000E+00   0.00000000000000000E+00   0.00000000000000000E+00   0.00000000000000000E+00   0.00000000000000000E+00
             0.00000000000000000E+00   0.00000000000000000E+00   0.00000000000000000E+00   0.00000000000000000E+00   0.00000000000000000E+00
             0.00000000000000000E+00   0.00000000000000000E+00   0.00000000000000000E+00   0.00000000000000000E+00   0.00000000000000000E+00
             0.00000000000000000E+00   0.00000000000000000E+00   0.00000000000000000E+00   0.00000000000000000E+00   0.00000000000000000E+00
             0.00000000000000000E+00   0.00000000000000000E+00
 ETA=   10   0.00000000000000000E+00   0.00000000000000000E+00   0.00000000000000000E+00   0.00000000000000000E+00   0.00000000000000000E+00
             0.00000000000000000E+00   0.00000000000000000E+00   0.00000000000000000E+00   0.00000000000000000E+00   0.00000000000000000E+00
             0.00000000000000000E+00   0.00000000000000000E+00   0.00000000000000000E+00   0.00000000000000000E+00   0.00000000000000000E+00
             0.00000000000000000E+00   0.00000000000000000E+00   0.00000000000000000E+00   0.00000000000000000E+00   0.00000000000000000E+00
             0.00000000000000000E+00   0.00000000000000000E+00   0.00000000000000000E+00   0.00000000000000000E+00   0.00000000000000000E+00
             0.00000000000000000E+00   0.00000000000000000E+00   0.00000000000000000E+00   0.00000000000000000E+00   0.00000000000000000E+00
             0.00000000000000000E+00   0.00000000000000000E+00   0.00000000000000000E+00   0.00000000000000000E+00   0.00000000000000000E+00
             0.00000000000000000E+00   0.00000000000000000E+00   0.00000000000000000E+00   0.00000000000000000E+00   0.00000000000000000E+00
             0.00000000000000000E+00   0.00000000000000000E+00   0.00000000000000000E+00   0.00000000000000000E+00   0.00000000000000000E+00
             0.00000000000000000E+00   0.00000000000000000E+00   0.00000000000000000E+00   0.00000000000000000E+00   0.00000000000000000E+00
             0.00000000000000000E+00   0.00000000000000000E+00   0.00000000000000000E+00   0.00000000000000000E+00   0.00000000000000000E+00
             0.00000000000000000E+00   0.00000000000000000E+00   0.00000000000000000E+00   0.00000000000000000E+00   0.00000000000000000E+00
             0.00000000000000000E+00   0.00000000000000000E+00   0.00000000000000000E+00   0.00000000000000000E+00   0.00000000000000000E+00
             0.00000000000000000E+00   0.00000000000000000E+00   0.00000000000000000E+00   0.00000000000000000E+00   0.00000000000000000E+00
             0.00000000000000000E+00   0.00000000000000000E+00   0.00000000000000000E+00   0.00000000000000000E+00   0.00000000000000000E+00
             0.00000000000000000E+00   0.00000000000000000E+00   0.00000000000000000E+00   0.00000000000000000E+00   0.00000000000000000E+00
             0.00000000000000000E+00   0.00000000000000000E+00   0.00000000000000000E+00   0.00000000000000000E+00   0.00000000000000000E+00
             0.00000000000000000E+00   0.00000000000000000E+00   0.00000000000000000E+00   0.00000000000000000E+00   0.00000000000000000E+00
             0.00000000000000000E+00   0.00000000000000000E+00   0.00000000000000000E+00   7.00069162999999942E+05   7.00219162999999942E+05
             7.00369162999999942E+05   7.00519162999999942E+05   7.00669162999999942E+05   7.00819162999999942E+05   7.00969162999999942E+05
             7.01119162999999942E+05   7.01269162999999942E+05   7.01419162999999942E+05   7.01569162999999942E+05   7.01719162999999942E+05
             7.01869162999999942E+05   7.02019162999999942E+05   7.02169162999999942E+05   7.02319162999999942E+05   7.02469162999999942E+05
             7.02619162999999942E+05   7.02769162999999942E+05   7.02919162999999942E+05   7.03069162999999942E+05   7.03219162999999942E+05
             7.03369162999999942E+05   7.03519162999999942E+05   7.03669162999999942E+05   7.03819162999999942E+05   7.03969162999999942E+05
             7.04119162999999942E+05   7.04269162999999942E+05   7.04419162999999942E+05   7.04569162999999942E+05   7.04719162999999942E+05
             7.04869162999999942E+05   7.05019162999999942E+05   7.05169162999999942E+05   7.05319162999999942E+05   7.05469162999999942E+05
             7.05619162999999942E+05   7.05769162999999942E+05   7.05919162999999942E+05   7.06069162999999942E+05   7.06219162999999942E+05
             7.06369162999999942E+05   7.06519162999999942E+05   0.00000000000000000E+00   0.00000000000000000E+00   0.00000000000000000E+00
             0.00000000000000000E+00   0.00000000000000000E+00   0.00000000000000000E+00   0.00000000000000000E+00   0.00000000000000000E+00
             0.00000000000000000E+00   0.00000000000000000E+00   0.00000000000000000E+00   0.00000000000000000E+00   0.00000000000000000E+00
             0.00000000000000000E+00   0.00000000000000000E+00   0.00000000000000000E+00   0.00000000000000000E+00   0.00000000000000000E+00
             0.00000000000000000E+00   0.00000000000000000E+00   0.00000000000000000E+00   0.00000000000000000E+00   0.00000000000000000E+00
             0.00000000000000000E+00   0.00000000000000000E+00   0.00000000000000000E+00   0.00000000000000000E+00   0.00000000000000000E+00
             0.00000000000000000E+00   0.00000000000000000E+00   0.00000000000000000E+00   0.00000000000000000E+00   0.00000000000000000E+00
             0.00000000000000000E+00   0.00000000000000000E+00   0.00000000000000000E+00   0.00000000000000000E+00   0.00000000000000000E+00
             0.00000000000000000E+00   0.00000000000000000E+00   0.00000000000000000E+00   0.00000000000000000E+00   0.00000000000000000E+00
             0.00000000000000000E+00   0.00000000000000000E+00   0.00000000000000000E+00   0.00000000000000000E+00   0.00000000000000000E+00
             0.00000000000000000E+00   0.00000000000000000E+00   0.00000000000000000E+00   0.00000000000000000E+00   0.00000000000000000E+00
             0.00000000000000000E+00   0.00000000000000000E+00   0.00000000000000000E+00   0.00000000000000000E+00   0.00000000000000000E+00
             0.00000000000000000E+00   0.00000000000000000E+00   0.00000000000000000E+00   0.00000000000000000E+00   0.00000000000000000E+00
             0.00000000000000000E+00   0.00000000000000000E+00   0.00000000000000000E+00   0.00000000000000000E+00   0.00000000000000000E+00
             0.00000000000000000E+00   0.00000000000000000E+00   0.00000000000000000E+00   0.00000000000000000E+00   0.00000000000000000E+00
             0.00000000000000000E+00   0.00000000000000000E+00   0.00000000000000000E+00   0.00000000000000000E+00   0.00000000000000000E+00
             0.00000000000000000E+00   0.00000000000000000E+00   0.00000000000000000E+00   0.00000000000000000E+00   0.00000000000000000E+00
             0.00000000000000000E+00   0.00000000000000000E+00   0.00000000000000000E+00   0.00000000000000000E+00   0.00000000000000000E+00
             0.00000000000000000E+00   0.00000000000000000E+00   0.00000000000000000E+00   0.00000000000000000E+00   0.00000000000000000E+00
             0.00000000000000000E+00   0.00000000000000000E+00   0.00000000000000000E+00   0.00000000000000000E+00   0.00000000000000000E+00
             0.00000000000000000E+00   0.00000000000000000E+00   0.00000000000000000E+00   0.00000000000000000E+00   0.00000000000000000E+00
             0.00000000000000000E+00   0.00000000000000000E+00   0.00000000000000000E+00   0.00000000000000000E+00   0.00000000000000000E+00
             0.00000000000000000E+00   0.00000000000000000E+00   0.00000000000000000E+00   0.00000000000000000E+00   0.00000000000000000E+00
             0.00000000000000000E+00   0.00000000000000000E+00
 ETA=   11   0.00000000000000000E+00   0.00000000000000000E+00   0.00000000000000000E+00   0.00000000000000000E+00   0.00000000000000000E+00
             0.00000000000000000E+00   0.00000000000000000E+00   0.00000000000000000E+00   0.00000000000000000E+00   0.00000000000000000E+00
             0.00000000000000000E+00   0.00000000000000000E+00   0.00000000000000000E+00   0.00000000000000000E+00   0.00000000000000000E+00
             0.00000000000000000E+00   0.00000000000000000E+00   0.00000000000000000E+00   0.00000000000000000E+00   0.00000000000000000E+00
             0.00000000000000000E+00   0.00000000000000000E+00   0.00000000000000000E+00   0.00000000000000000E+00   0.00000000000000000E+00
             0.00000000000000000E+00   0.00000000000000000E+00   0.00000000000000000E+00   0.00000000000000000E+00   0.00000000000000000E+00
             0.00000000000000000E+00   0.00000000000000000E+00   0.00000000000000000E+00   0.00000000000000000E+00   0.00000000000000000E+00
             0.00000000000000000E+00   0.00000000000000000E+00   0.00000000000000000E+00   0.00000000000000000E+00   0.00000000000000000E+00
             0.00000000000000000E+00   0.00000000000000000E+00   0.00000000000000000E+00   0.00000000000000000E+00   0.00000000000000000E+00
             0.00000000000000000E+00   0.00000000000000000E+00   0.00000000000000000E+00   0.00000000000000000E+00   0.00000000000000000E+00
             0.00000000000000000E+00   0.00000000000000000E+00   0.00000000000000000E+00   0.00000000000000000E+00   0.00000000000000000E+00
             0.00000000000000000E+00   0.00000000000000000E+00   0.00000000000000000E+00   0.00000000000000000E+00   0.00000000000000000E+00
             0.00000000000000000E+00   0.00000000000000000E+00   0.00000000000000000E+00   0.00000000000000000E+00   0.00000000000000000E+00
             0.00000000000000000E+00   0.00000000000000000E+00   0.00000000000000000E+00   0.00000000000000000E+00   0.00000000000000000E+00
             0.00000000000000000E+00   0.00000000000000000E+00   0.00000000000000000E+00   0.00000000000000000E+00   0.00000000000000000E+00
             6.97369162999999942E+05   6.97519162999999942E+05   0.00000000000000000E+00   0.00000000000000000E+00   0.00000000000000000E+00
             0.00000000000000000E+00   0.00000000000000000E+00   0.00000000000000000E+00   0.00000000000000000E+00   0.00000000000000000E+00
             6.98869162999999942E+05   6.99019162999999942E+05   6.99169162999999942E+05   0.00000000000000000E+00   0.00000000000000000E+00
             0.00000000000000000E+00   0.00000000000000000E+00   6.99919162999999942E+05   7.00069162999999942E+05   7.00219162999999942E+05
             7.00369162999999942E+05   7.00519162999999942E+05   7.00669162999999942E+05   7.00819162999999942E+05   7.00969162999999942E+05
             7.01119162999999942E+05   7.01269162999999942E+05   7.01419162999999942E+05   7.01569162999999942E+05   7.01719162999999942E+05
             7.01869162999999942E+05   7.02019162999999942E+05   7.02169162999999942E+05   7.02319162999999942E+05   7.02469162999999942E+05
             7.02619162999999942E+05   7.02769162999999942E+05   7.02919162999999942E+05   7.03069162999999942E+05   7.03219162999999942E+05
             7.03369162999999942E+05   7.03519162999999942E+05   7.03669162999999942E+05   7.03819162999999942E+05   7.03969162999999942E+05
             7.04119162999999942E+05   7.04269162999999942E+05   7.04419162999999942E+05   7.04569162999999942E+05   7.04719162999999942E+05
             7.04869162999999942E+05   7.05019162999999942E+05   7.05169162999999942E+05   7.05319162999999942E+05   7.05469162999999942E+05
             7.05619162999999942E+05   7.05769162999999942E+05   7.05919162999999942E+05   7.06069162999999942E+05   7.06219162999999942E+05
             7.06369162999999942E+05   7.06519162999999942E+05   7.06669162999999942E+05   0.00000000000000000E+00   0.00000000000000000E+00
             0.00000000000000000E+00   0.00000000000000000E+00   0.00000000000000000E+00   0.00000000000000000E+00   0.00000000000000000E+00
             0.00000000000000000E+00   0.00000000000000000E+00   0.00000000000000000E+00   0.00000000000000000E+00   0.00000000000000000E+00
             0.00000000000000000E+00   0.00000000000000000E+00   0.00000000000000000E+00   0.00000000000000000E+00   0.00000000000000000E+00
             0.00000000000000000E+00   0.00000000000000000E+00   0.00000000000000000E+00   0.00000000000000000E+00   0.00000000000000000E+00
             0.00000000000000000E+00   0.00000000000000000E+00   0.00000000000000000E+00   0.00000000000000000E+00   0.00000000000000000E+00
             0.00000000000000000E+00   0.00000000000000000E+00   0.00000000000000000E+00   0.00000000000000000E+00   0.00000000000000000E+00
             0.00000000000000000E+00   0.00000000000000000E+00   0.00000000000000000E+00   0.00000000000000000E+00   0.00000000000000000E+00
             0.00000000000000000E+00   0.00000000000000000E+00   0.00000000000000000E+00   0.00000000000000000E+00   0.00000000000000000E+00
             0.00000000000000000E+00   0.00000000000000000E+00   0.00000000000000000E+00   0.00000000000000000E+00   0.00000000000000000E+00
             0.00000000000000000E+00   0.00000000000000000E+00   0.00000000000000000E+00   0.00000000000000000E+00   0.00000000000000000E+00
             0.00000000000000000E+00   0.00000000000000000E+00   0.00000000000000000E+00   0.00000000000000000E+00   0.00000000000000000E+00
             0.00000000000000000E+00   0.00000000000000000E+00   0.00000000000000000E+00   0.00000000000000000E+00   0.00000000000000000E+00
             0.00000000000000000E+00   0.00000000000000000E+00   0.00000000000000000E+00   0.00000000000000000E+00   0.00000000000000000E+00
             0.00000000000000000E+00   0.00000000000000000E+00   0.00000000000000000E+00   0.00000000000000000E+00   0.00000000000000000E+00
             0.00000000000000000E+00   0.00000000000000000E+00   0.00000000000000000E+00   0.00000000000000000E+00   0.00000000000000000E+00
             0.00000000000000000E+00   0.00000000000000000E+00   0.00000000000000000E+00   0.00000000000000000E+00   0.00000000000000000E+00
             0.00000000000000000E+00   0.00000000000000000E+00   0.00000000000000000E+00   0.00000000000000000E+00   0.00000000000000000E+00
             0.00000000000000000E+00   0.00000000000000000E+00   0.00000000000000000E+00   0.00000000000000000E+00   0.00000000000000000E+00
             0.00000000000000000E+00   0.00000000000000000E+00   0.00000000000000000E+00   0.00000000000000000E+00   0.00000000000000000E+00
             0.00000000000000000E+00   0.00000000000000000E+00   0.00000000000000000E+00   0.00000000000000000E+00   0.00000000000000000E+00
             0.00000000000000000E+00   0.00000000000000000E+00   0.00000000000000000E+00   0.00000000000000000E+00   0.00000000000000000E+00
             0.00000000000000000E+00   0.00000000000000000E+00   0.00000000000000000E+00   0.00000000000000000E+00   0.00000000000000000E+00
             0.00000000000000000E+00   0.00000000000000000E+00
 ETA=   12   0.00000000000000000E+00   0.00000000000000000E+00   0.00000000000000000E+00   0.00000000000000000E+00   0.00000000000000000E+00
             0.00000000000000000E+00   0.00000000000000000E+00   0.00000000000000000E+00   0.00000000000000000E+00   0.00000000000000000E+00
             0.00000000000000000E+00   0.00000000000000000E+00   0.00000000000000000E+00   0.00000000000000000E+00   0.00000000000000000E+00
             0.00000000000000000E+00   0.00000000000000000E+00   0.00000000000000000E+00   0.00000000000000000E+00   0.00000000000000000E+00
             0.00000000000000000E+00   0.00000000000000000E+00   0.00000000000000000E+00   0.00000000000000000E+00   0.00000000000000000E+00
             0.00000000000000000E+00   0.00000000000000000E+00   0.00000000000000000E+00   0.00000000000000000E+00   0.00000000000000000E+00
             0.00000000000000000E+00   0.00000000000000000E+00   0.00000000000000000E+00   0.00000000000000000E+00   0.00000000000000000E+00
             0.00000000000000000E+00   0.00000000000000000E+00   0.00000000000000000E+00   0.00000000000000000E+00   0.00000000000000000E+00
             0.00000000000000000E+00   0.00000000000000000E+00   0.00000000000000000E+00   0.00000000000000000E+00   0.00000000000000000E+00
             0.00000000000000000E+00   0.00000000000000000E+00   0.00000000000000000E+00   0.00000000000000000E+00   0.00000000000000000E+00
             0.00000000000000000E+00   0.00000000000000000E+00   0.00000000000000000E+00   0.00000000000000000E+00   0.00000000000000000E+00
[...]
             9.34275600799999945E+06   9.34275600799999945E+06   9.34275600799999945E+06   9.34275600799999945E+06   9.34275600799999945E+06
             9.34275600799999945E+06   9.34275600799999945E+06   9.34275600799999945E+06   9.34275600799999945E+06   9.34275600799999945E+06
             9.34275600799999945E+06   9.34275600799999945E+06   9.34275600799999945E+06   9.34275600799999945E+06   9.34275600799999945E+06
             9.34275600799999945E+06   9.34275600799999945E+06   9.34275600799999945E+06   9.34275600799999945E+06   9.34275600799999945E+06
             9.34275600799999945E+06   9.34275600799999945E+06   9.34275600799999945E+06   9.34275600799999945E+06   9.34275600799999945E+06
             9.34275600799999945E+06   9.34275600799999945E+06   9.34275600799999945E+06   9.34275600799999945E+06   9.34275600799999945E+06
             9.34275600799999945E+06   9.34275600799999945E+06   9.34275600799999945E+06   9.34275600799999945E+06   9.34275600799999945E+06
             9.34275600799999945E+06   9.34275600799999945E+06   9.34275600799999945E+06   9.34275600799999945E+06   9.34275600799999945E+06
             9.34275600799999945E+06   9.34275600799999945E+06   9.34275600799999945E+06   9.34275600799999945E+06   9.34275600799999945E+06
             9.34275600799999945E+06   9.34275600799999945E+06   9.34275600799999945E+06   9.34275600799999945E+06   9.34275600799999945E+06
             9.34275600799999945E+06   9.34275600799999945E+06   9.34275600799999945E+06   9.34275600799999945E+06   9.34275600799999945E+06
             9.34275600799999945E+06   9.34275600799999945E+06   9.34275600799999945E+06   9.34275600799999945E+06   9.34275600799999945E+06
             9.34275600799999945E+06   9.34275600799999945E+06   9.34275600799999945E+06   9.34275600799999945E+06   9.34275600799999945E+06
             9.34275600799999945E+06   9.34275600799999945E+06   9.34275600799999945E+06   9.34275600799999945E+06   9.34275600799999945E+06
             9.34275600799999945E+06   9.34275600799999945E+06   9.34275600799999945E+06   9.34275600799999945E+06   9.34275600799999945E+06
             9.34275600799999945E+06   9.34275600799999945E+06   9.34275600799999945E+06   9.34275600799999945E+06   9.34275600799999945E+06
             9.34275600799999945E+06   9.34275600799999945E+06   9.34275600799999945E+06   9.34275600799999945E+06   9.34275600799999945E+06
             9.34275600799999945E+06   9.34275600799999945E+06   9.34275600799999945E+06   9.34275600799999945E+06   9.34275600799999945E+06
             9.34275600799999945E+06   9.34275600799999945E+06   9.34275600799999945E+06   9.34275600799999945E+06   9.34275600799999945E+06
             9.34275600799999945E+06   9.34275600799999945E+06   9.34275600799999945E+06   9.34275600799999945E+06   9.34275600799999945E+06
             9.34275600799999945E+06   9.34275600799999945E+06   9.34275600799999945E+06   9.34275600799999945E+06   9.34275600799999945E+06
             9.34275600799999945E+06   9.34275600799999945E+06   9.34275600799999945E+06   9.34275600799999945E+06   9.34275600799999945E+06
             9.34275600799999945E+06   9.34275600799999945E+06   9.34275600799999945E+06   9.34275600799999945E+06   9.34275600799999945E+06
             9.34275600799999945E+06   9.34275600799999945E+06   9.34275600799999945E+06   9.34275600799999945E+06   9.34275600799999945E+06
             9.34275600799999945E+06   9.34275600799999945E+06   9.34275600799999945E+06   9.34275600799999945E+06   9.34275600799999945E+06
             9.34275600799999945E+06   9.34275600799999945E+06   9.34275600799999945E+06   9.34275600799999945E+06   9.34275600799999945E+06
             9.34275600799999945E+06   9.34275600799999945E+06   9.34275600799999945E+06   9.34275600799999945E+06   9.34275600799999945E+06
             9.34275600799999945E+06   9.34275600799999945E+06   9.34275600799999945E+06   9.34275600799999945E+06   9.34275600799999945E+06
             9.34275600799999945E+06   9.34275600799999945E+06   9.34275600799999945E+06   9.34275600799999945E+06   9.34275600799999945E+06
             9.34275600799999945E+06   9.34275600799999945E+06   9.34275600799999945E+06   9.34275600799999945E+06   9.34275600799999945E+06
             9.34275600799999945E+06   9.34275600799999945E+06   9.34275600799999945E+06   9.34275600799999945E+06   9.34275600799999945E+06
             9.34275600799999945E+06   9.34275600799999945E+06   9.34275600799999945E+06   9.34275600799999945E+06   9.34275600799999945E+06
             9.34275600799999945E+06   9.34275600799999945E+06   9.34275600799999945E+06   9.34275600799999945E+06   9.34275600799999945E+06
             9.34275600799999945E+06   9.34275600799999945E+06   9.34275600799999945E+06   9.34275600799999945E+06   9.34275600799999945E+06
             9.34275600799999945E+06   9.34275600799999945E+06   9.34275600799999945E+06   9.34275600799999945E+06   9.34275600799999945E+06
             9.34275600799999945E+06   9.34275600799999945E+06   9.34275600799999945E+06   9.34275600799999945E+06   9.34275600799999945E+06
             9.34275600799999945E+06   9.34275600799999945E+06   9.34275600799999945E+06   9.34275600799999945E+06   9.34275600799999945E+06
             9.34275600799999945E+06   9.34275600799999945E+06   9.34275600799999945E+06   9.34275600799999945E+06   9.34275600799999945E+06
             9.34275600799999945E+06   9.34275600799999945E+06   9.34275600799999945E+06   9.34275600799999945E+06   9.34275600799999945E+06
             9.34275600799999945E+06   0.00000000000000000E+00   0.00000000000000000E+00   0.00000000000000000E+00   0.00000000000000000E+00
             0.00000000000000000E+00   0.00000000000000000E+00
 ETA=  134   9.34290600799999945E+06   9.34290600799999945E+06   9.34290600799999945E+06   9.34290600799999945E+06   9.34290600799999945E+06
             9.34290600799999945E+06   9.34290600799999945E+06   9.34290600799999945E+06   9.34290600799999945E+06   9.34290600799999945E+06
             9.34290600799999945E+06   9.34290600799999945E+06   9.34290600799999945E+06   9.34290600799999945E+06   9.34290600799999945E+06
             9.34290600799999945E+06   9.34290600799999945E+06   9.34290600799999945E+06   9.34290600799999945E+06   9.34290600799999945E+06
             9.34290600799999945E+06   9.34290600799999945E+06   9.34290600799999945E+06   9.34290600799999945E+06   9.34290600799999945E+06
             9.34290600799999945E+06   9.34290600799999945E+06   9.34290600799999945E+06   9.34290600799999945E+06   9.34290600799999945E+06
             9.34290600799999945E+06   9.34290600799999945E+06   9.34290600799999945E+06   9.34290600799999945E+06   9.34290600799999945E+06
             9.34290600799999945E+06   9.34290600799999945E+06   9.34290600799999945E+06   9.34290600799999945E+06   9.34290600799999945E+06
             9.34290600799999945E+06   9.34290600799999945E+06   9.34290600799999945E+06   9.34290600799999945E+06   9.34290600799999945E+06
             9.34290600799999945E+06   9.34290600799999945E+06   9.34290600799999945E+06   9.34290600799999945E+06   9.34290600799999945E+06
             9.34290600799999945E+06   9.34290600799999945E+06   9.34290600799999945E+06   9.34290600799999945E+06   9.34290600799999945E+06
             9.34290600799999945E+06   9.34290600799999945E+06   9.34290600799999945E+06   9.34290600799999945E+06   9.34290600799999945E+06
             9.34290600799999945E+06   9.34290600799999945E+06   9.34290600799999945E+06   9.34290600799999945E+06   9.34290600799999945E+06
             9.34290600799999945E+06   9.34290600799999945E+06   9.34290600799999945E+06   9.34290600799999945E+06   9.34290600799999945E+06
             9.34290600799999945E+06   9.34290600799999945E+06   9.34290600799999945E+06   9.34290600799999945E+06   9.34290600799999945E+06
             9.34290600799999945E+06   9.34290600799999945E+06   9.34290600799999945E+06   9.34290600799999945E+06   9.34290600799999945E+06
             9.34290600799999945E+06   9.34290600799999945E+06   9.34290600799999945E+06   9.34290600799999945E+06   9.34290600799999945E+06
             9.34290600799999945E+06   9.34290600799999945E+06   9.34290600799999945E+06   9.34290600799999945E+06   9.34290600799999945E+06
             9.34290600799999945E+06   9.34290600799999945E+06   9.34290600799999945E+06   9.34290600799999945E+06   9.34290600799999945E+06
             9.34290600799999945E+06   9.34290600799999945E+06   9.34290600799999945E+06   9.34290600799999945E+06   9.34290600799999945E+06
             9.34290600799999945E+06   9.34290600799999945E+06   9.34290600799999945E+06   9.34290600799999945E+06   9.34290600799999945E+06
             9.34290600799999945E+06   9.34290600799999945E+06   9.34290600799999945E+06   9.34290600799999945E+06   9.34290600799999945E+06
             9.34290600799999945E+06   9.34290600799999945E+06   9.34290600799999945E+06   9.34290600799999945E+06   9.34290600799999945E+06
             9.34290600799999945E+06   9.34290600799999945E+06   9.34290600799999945E+06   9.34290600799999945E+06   9.34290600799999945E+06
             9.34290600799999945E+06   9.34290600799999945E+06   9.34290600799999945E+06   9.34290600799999945E+06   9.34290600799999945E+06
             9.34290600799999945E+06   9.34290600799999945E+06   9.34290600799999945E+06   9.34290600799999945E+06   9.34290600799999945E+06
             9.34290600799999945E+06   9.34290600799999945E+06   9.34290600799999945E+06   9.34290600799999945E+06   9.34290600799999945E+06
             9.34290600799999945E+06   9.34290600799999945E+06   9.34290600799999945E+06   9.34290600799999945E+06   9.34290600799999945E+06
             9.34290600799999945E+06   9.34290600799999945E+06   9.34290600799999945E+06   9.34290600799999945E+06   9.34290600799999945E+06
             9.34290600799999945E+06   9.34290600799999945E+06   9.34290600799999945E+06   9.34290600799999945E+06   9.34290600799999945E+06
             9.34290600799999945E+06   9.34290600799999945E+06   9.34290600799999945E+06   9.34290600799999945E+06   9.34290600799999945E+06
             9.34290600799999945E+06   9.34290600799999945E+06   9.34290600799999945E+06   9.34290600799999945E+06   9.34290600799999945E+06
             9.34290600799999945E+06   9.34290600799999945E+06   9.34290600799999945E+06   9.34290600799999945E+06   9.34290600799999945E+06
             9.34290600799999945E+06   9.34290600799999945E+06   9.34290600799999945E+06   9.34290600799999945E+06   9.34290600799999945E+06
             9.34290600799999945E+06   9.34290600799999945E+06   9.34290600799999945E+06   9.34290600799999945E+06   9.34290600799999945E+06
             9.34290600799999945E+06   9.34290600799999945E+06   9.34290600799999945E+06   9.34290600799999945E+06   9.34290600799999945E+06
             9.34290600799999945E+06   9.34290600799999945E+06   9.34290600799999945E+06   9.34290600799999945E+06   9.34290600799999945E+06
             9.34290600799999945E+06   9.34290600799999945E+06   9.34290600799999945E+06   9.34290600799999945E+06   9.34290600799999945E+06
             9.34290600799999945E+06   9.34290600799999945E+06   9.34290600799999945E+06   9.34290600799999945E+06   9.34290600799999945E+06
             9.34290600799999945E+06   9.34290600799999945E+06   9.34290600799999945E+06   9.34290600799999945E+06   9.34290600799999945E+06
             9.34290600799999945E+06   9.34290600799999945E+06   9.34290600799999945E+06   9.34290600799999945E+06   9.34290600799999945E+06
             9.34290600799999945E+06   9.34290600799999945E+06   9.34290600799999945E+06   9.34290600799999945E+06   9.34290600799999945E+06
             9.34290600799999945E+06   9.34290600799999945E+06   9.34290600799999945E+06   9.34290600799999945E+06   9.34290600799999945E+06
             9.34290600799999945E+06   9.34290600799999945E+06   9.34290600799999945E+06   9.34290600799999945E+06   9.34290600799999945E+06
             9.34290600799999945E+06   9.34290600799999945E+06   9.34290600799999945E+06   9.34290600799999945E+06   9.34290600799999945E+06
             9.34290600799999945E+06   9.34290600799999945E+06   9.34290600799999945E+06   9.34290600799999945E+06   9.34290600799999945E+06
             9.34290600799999945E+06   9.34290600799999945E+06   9.34290600799999945E+06   9.34290600799999945E+06   9.34290600799999945E+06
             9.34290600799999945E+06   9.34290600799999945E+06   9.34290600799999945E+06   9.34290600799999945E+06   9.34290600799999945E+06
             9.34290600799999945E+06   9.34290600799999945E+06   9.34290600799999945E+06   9.34290600799999945E+06   0.00000000000000000E+00
             0.00000000000000000E+00   0.00000000000000000E+00   0.00000000000000000E+00   0.00000000000000000E+00   0.00000000000000000E+00
             0.00000000000000000E+00   0.00000000000000000E+00
 ETA=  135   9.34305600799999945E+06   9.34305600799999945E+06   9.34305600799999945E+06   9.34305600799999945E+06   9.34305600799999945E+06
             9.34305600799999945E+06   9.34305600799999945E+06   9.34305600799999945E+06   9.34305600799999945E+06   9.34305600799999945E+06
             9.34305600799999945E+06   9.34305600799999945E+06   9.34305600799999945E+06   9.34305600799999945E+06   9.34305600799999945E+06
             9.34305600799999945E+06   9.34305600799999945E+06   9.34305600799999945E+06   9.34305600799999945E+06   9.34305600799999945E+06
             9.34305600799999945E+06   9.34305600799999945E+06   9.34305600799999945E+06   9.34305600799999945E+06   9.34305600799999945E+06
             9.34305600799999945E+06   9.34305600799999945E+06   9.34305600799999945E+06   9.34305600799999945E+06   9.34305600799999945E+06
             9.34305600799999945E+06   9.34305600799999945E+06   9.34305600799999945E+06   9.34305600799999945E+06   9.34305600799999945E+06
             9.34305600799999945E+06   9.34305600799999945E+06   9.34305600799999945E+06   9.34305600799999945E+06   9.34305600799999945E+06
             9.34305600799999945E+06   9.34305600799999945E+06   9.34305600799999945E+06   9.34305600799999945E+06   9.34305600799999945E+06
             9.34305600799999945E+06   9.34305600799999945E+06   9.34305600799999945E+06   9.34305600799999945E+06   9.34305600799999945E+06
             9.34305600799999945E+06   9.34305600799999945E+06   9.34305600799999945E+06   9.34305600799999945E+06   9.34305600799999945E+06
             9.34305600799999945E+06   9.34305600799999945E+06   9.34305600799999945E+06   9.34305600799999945E+06   9.34305600799999945E+06
             9.34305600799999945E+06   9.34305600799999945E+06   9.34305600799999945E+06   9.34305600799999945E+06   9.34305600799999945E+06
             9.34305600799999945E+06   9.34305600799999945E+06   9.34305600799999945E+06   9.34305600799999945E+06   9.34305600799999945E+06
             9.34305600799999945E+06   9.34305600799999945E+06   9.34305600799999945E+06   9.34305600799999945E+06   9.34305600799999945E+06
             9.34305600799999945E+06   9.34305600799999945E+06   9.34305600799999945E+06   9.34305600799999945E+06   9.34305600799999945E+06
             9.34305600799999945E+06   9.34305600799999945E+06   9.34305600799999945E+06   9.34305600799999945E+06   9.34305600799999945E+06
             9.34305600799999945E+06   9.34305600799999945E+06   9.34305600799999945E+06   9.34305600799999945E+06   9.34305600799999945E+06
             9.34305600799999945E+06   9.34305600799999945E+06   9.34305600799999945E+06   9.34305600799999945E+06   9.34305600799999945E+06
             9.34305600799999945E+06   9.34305600799999945E+06   9.34305600799999945E+06   9.34305600799999945E+06   9.34305600799999945E+06
             9.34305600799999945E+06   9.34305600799999945E+06   9.34305600799999945E+06   9.34305600799999945E+06   9.34305600799999945E+06
             9.34305600799999945E+06   9.34305600799999945E+06   9.34305600799999945E+06   9.34305600799999945E+06   9.34305600799999945E+06
             9.34305600799999945E+06   9.34305600799999945E+06   9.34305600799999945E+06   9.34305600799999945E+06   9.34305600799999945E+06
             9.34305600799999945E+06   9.34305600799999945E+06   9.34305600799999945E+06   9.34305600799999945E+06   9.34305600799999945E+06
             9.34305600799999945E+06   9.34305600799999945E+06   9.34305600799999945E+06   9.34305600799999945E+06   9.34305600799999945E+06
             9.34305600799999945E+06   9.34305600799999945E+06   9.34305600799999945E+06   9.34305600799999945E+06   9.34305600799999945E+06
             9.34305600799999945E+06   9.34305600799999945E+06   9.34305600799999945E+06   9.34305600799999945E+06   9.34305600799999945E+06
             9.34305600799999945E+06   9.34305600799999945E+06   9.34305600799999945E+06   9.34305600799999945E+06   9.34305600799999945E+06
             9.34305600799999945E+06   9.34305600799999945E+06   9.34305600799999945E+06   9.34305600799999945E+06   9.34305600799999945E+06
             9.34305600799999945E+06   9.34305600799999945E+06   9.34305600799999945E+06   9.34305600799999945E+06   9.34305600799999945E+06
             9.34305600799999945E+06   9.34305600799999945E+06   9.34305600799999945E+06   9.34305600799999945E+06   9.34305600799999945E+06
             9.34305600799999945E+06   9.34305600799999945E+06   9.34305600799999945E+06   9.34305600799999945E+06   9.34305600799999945E+06
             9.34305600799999945E+06   9.34305600799999945E+06   9.34305600799999945E+06   9.34305600799999945E+06   9.34305600799999945E+06
             9.34305600799999945E+06   9.34305600799999945E+06   9.34305600799999945E+06   9.34305600799999945E+06   9.34305600799999945E+06
             9.34305600799999945E+06   9.34305600799999945E+06   9.34305600799999945E+06   9.34305600799999945E+06   9.34305600799999945E+06
             9.34305600799999945E+06   9.34305600799999945E+06   9.34305600799999945E+06   9.34305600799999945E+06   9.34305600799999945E+06
             9.34305600799999945E+06   9.34305600799999945E+06   9.34305600799999945E+06   9.34305600799999945E+06   9.34305600799999945E+06
             9.34305600799999945E+06   9.34305600799999945E+06   9.34305600799999945E+06   9.34305600799999945E+06   9.34305600799999945E+06
             9.34305600799999945E+06   9.34305600799999945E+06   9.34305600799999945E+06   9.34305600799999945E+06   9.34305600799999945E+06
             9.34305600799999945E+06   9.34305600799999945E+06   9.34305600799999945E+06   9.34305600799999945E+06   9.34305600799999945E+06
             9.34305600799999945E+06   9.34305600799999945E+06   9.34305600799999945E+06   9.34305600799999945E+06   9.34305600799999945E+06
             9.34305600799999945E+06   9.34305600799999945E+06   9.34305600799999945E+06   9.34305600799999945E+06   9.34305600799999945E+06
             9.34305600799999945E+06   9.34305600799999945E+06   9.34305600799999945E+06   9.34305600799999945E+06   9.34305600799999945E+06
             9.34305600799999945E+06   9.34305600799999945E+06   9.34305600799999945E+06   9.34305600799999945E+06   9.34305600799999945E+06
             9.34305600799999945E+06   9.34305600799999945E+06   9.34305600799999945E+06   9.34305600799999945E+06   9.34305600799999945E+06
             9.34305600799999945E+06   9.34305600799999945E+06   9.34305600799999945E+06   9.34305600799999945E+06   9.34305600799999945E+06
             9.34305600799999945E+06   9.34305600799999945E+06   9.34305600799999945E+06   9.34305600799999945E+06   9.34305600799999945E+06
             9.34305600799999945E+06   9.34305600799999945E+06   9.34305600799999945E+06   9.34305600799999945E+06   9.34305600799999945E+06
             9.34305600799999945E+06   9.34305600799999945E+06   9.34305600799999945E+06   0.00000000000000000E+00   0.00000000000000000E+00
             0.00000000000000000E+00   0.00000000000000000E+00   0.00000000000000000E+00   0.00000000000000000E+00   0.00000000000000000E+00
             0.00000000000000000E+00   0.00000000000000000E+00
