*
* Deltares, Delft3D-RGFGRID Version 4.18.01.18383, Sep  7 2011, 14:23:22
* File creation date: 2026-02-10, 10:31:53
*
Coordinate System = Cartesian
      28      19
 0 0 0
 ETA=    1   0.00000000000000000E+00   0.00000000000000000E+00   0.00000000000000000E+00   0.00000000000000000E+00   0.00000000000000000E+00
             0.00000000000000000E+00   0.00000000000000000E+00   0.00000000000000000E+00   0.00000000000000000E+00   0.00000000000000000E+00
             0.00000000000000000E+00   0.00000000000000000E+00   0.00000000000000000E+00   0.00000000000000000E+00   7.02969162999999942E+05
             7.03044162999999942E+05   7.03119162999999942E+05   7.03194162999999942E+05   7.03269162999999942E+05   7.03344162999999942E+05
             7.03419162999999942E+05   7.03494162999999942E+05   0.00000000000000000E+00   0.00000000000000000E+00   0.00000000000000000E+00
             0.00000000000000000E+00   0.00000000000000000E+00   0.00000000000000000E+00
 ETA=    2   0.00000000000000000E+00   0.00000000000000000E+00   0.00000000000000000E+00   0.00000000000000000E+00   0.00000000000000000E+00
             0.00000000000000000E+00   0.00000000000000000E+00   0.00000000000000000E+00   7.02519162999999942E+05   7.02594162999999942E+05
             7.02669162999999942E+05   7.02744162999999942E+05   7.02819162999999942E+05   7.02894162999999942E+05   7.02969162999999942E+05
             7.03044162999999942E+05   7.03119162999999942E+05   7.03194162999999942E+05   7.03269162999999942E+05   7.03344162999999942E+05
             7.03419162999999942E+05   7.03494162999999942E+05   7.03569162999999942E+05   7.03644162999999942E+05   7.03719162999999942E+05
             7.03794162999999942E+05   7.03869162999999942E+05   7.03944162999999942E+05
 ETA=    3   0.00000000000000000E+00   0.00000000000000000E+00   0.00000000000000000E+00   0.00000000000000000E+00   0.00000000000000000E+00
             7.02294162999999942E+05   7.02369162999999942E+05   7.02444162999999942E+05   7.02519162999999942E+05   7.02594162999999942E+05
             7.02669162999999942E+05   7.02744162999999942E+05   7.02819162999999942E+05   7.02894162999999942E+05   7.02969162999999942E+05
             7.03044162999999942E+05   7.03119162999999942E+05   7.03194162999999942E+05   7.03269162999999942E+05   7.03344162999999942E+05
             7.03419162999999942E+05   7.03494162999999942E+05   7.03569162999999942E+05   7.03644162999999942E+05   7.03719162999999942E+05
             7.03794162999999942E+05   7.03869162999999942E+05   7.03944162999999942E+05
 ETA=    4   0.00000000000000000E+00   0.00000000000000000E+00   0.00000000000000000E+00   0.00000000000000000E+00   0.00000000000000000E+00
             7.02294162999999942E+05   7.02369162999999942E+05   7.02444162999999942E+05   7.02519162999999942E+05   7.02594162999999942E+05
             7.02669162999999942E+05   7.02744162999999942E+05   7.02819162999999942E+05   7.02894162999999942E+05   7.02969162999999942E+05
             7.03044162999999942E+05   7.03119162999999942E+05   7.03194162999999942E+05   7.03269162999999942E+05   7.03344162999999942E+05
             7.03419162999999942E+05   7.03494162999999942E+05   7.03569162999999942E+05   7.03644162999999942E+05   7.03719162999999942E+05
             7.03794162999999942E+05   7.03869162999999942E+05   7.03944162999999942E+05
 ETA=    5   0.00000000000000000E+00   0.00000000000000000E+00   0.00000000000000000E+00   0.00000000000000000E+00   0.00000000000000000E+00
             7.02294162999999942E+05   7.02369162999999942E+05   7.02444162999999942E+05   7.02519162999999942E+05   7.02594162999999942E+05
             7.02669162999999942E+05   7.02744162999999942E+05   7.02819162999999942E+05   7.02894162999999942E+05   7.02969162999999942E+05
             7.03044162999999942E+05   7.03119162999999942E+05   7.03194162999999942E+05   7.03269162999999942E+05   7.03344162999999942E+05
             7.03419162999999942E+05   7.03494162999999942E+05   7.03569162999999942E+05   7.03644162999999942E+05   7.03719162999999942E+05
             7.03794162999999942E+05   7.03869162999999942E+05   7.03944162999999942E+05
 ETA=    6   0.00000000000000000E+00   0.00000000000000000E+00   0.00000000000000000E+00   0.00000000000000000E+00   0.00000000000000000E+00
             7.02294162999999942E+05   7.02369162999999942E+05   7.02444162999999942E+05   7.02519162999999942E+05   7.02594162999999942E+05
             7.02669162999999942E+05   7.02744162999999942E+05   7.02819162999999942E+05   7.02894162999999942E+05   7.02969162999999942E+05
             7.03044162999999942E+05   7.03119162999999942E+05   7.03194162999999942E+05   7.03269162999999942E+05   7.03344162999999942E+05
             7.03419162999999942E+05   7.03494162999999942E+05   7.03569162999999942E+05   7.03644162999999942E+05   7.03719162999999942E+05
             7.03794162999999942E+05   7.03869162999999942E+05   7.03944162999999942E+05
 ETA=    7   0.00000000000000000E+00   0.00000000000000000E+00   0.00000000000000000E+00   0.00000000000000000E+00   7.02219162999999942E+05
             7.02294162999999942E+05   7.02369162999999942E+05   7.02444162999999942E+05   7.02519162999999942E+05   7.02594162999999942E+05
             7.02669162999999942E+05   7.02744162999999942E+05   7.02819162999999942E+05   7.02894162999999942E+05   7.02969162999999942E+05
             7.03044162999999942E+05   7.03119162999999942E+05   7.03194162999999942E+05   7.03269162999999942E+05   7.03344162999999942E+05
             7.03419162999999942E+05   7.03494162999999942E+05   7.03569162999999942E+05   7.03644162999999942E+05   7.03719162999999942E+05
             7.03794162999999942E+05   7.03869162999999942E+05   7.03944162999999942E+05
 ETA=    8   0.00000000000000000E+00   7.01994162999999942E+05   7.02069162999999942E+05   7.02144162999999942E+05   7.02219162999999942E+05
             7.02294162999999942E+05   7.02369162999999942E+05   7.02444162999999942E+05   7.02519162999999942E+05   7.02594162999999942E+05
             7.02669162999999942E+05   7.02744162999999942E+05   7.02819162999999942E+05   7.02894162999999942E+05   7.02969162999999942E+05
             7.03044162999999942E+05   7.03119162999999942E+05   7.03194162999999942E+05   7.03269162999999942E+05   7.03344162999999942E+05
             7.03419162999999942E+05   7.03494162999999942E+05   7.03569162999999942E+05   7.03644162999999942E+05   7.03719162999999942E+05
             7.03794162999999942E+05   7.03869162999999942E+05   7.03944162999999942E+05
 ETA=    9   7.01919162999999942E+05   7.01994162999999942E+05   7.02069162999999942E+05   7.02144162999999942E+05   7.02219162999999942E+05
             7.02294162999999942E+05   7.02369162999999942E+05   7.02444162999999942E+05   7.02519162999999942E+05   7.02594162999999942E+05
             7.02669162999999942E+05   7.02744162999999942E+05   7.02819162999999942E+05   7.02894162999999942E+05   7.02969162999999942E+05
             7.03044162999999942E+05   7.03119162999999942E+05   7.03194162999999942E+05   7.03269162999999942E+05   7.03344162999999942E+05
             7.03419162999999942E+05   7.03494162999999942E+05   7.03569162999999942E+05   7.03644162999999942E+05   7.03719162999999942E+05
             7.03794162999999942E+05   7.03869162999999942E+05   7.03944162999999942E+05
 ETA=   10   7.01919162999999942E+05   7.01994162999999942E+05   7.02069162999999942E+05   7.02144162999999942E+05   7.02219162999999942E+05
             7.02294162999999942E+05   7.02369162999999942E+05   7.02444162999999942E+05   7.02519162999999942E+05   7.02594162999999942E+05
             7.02669162999999942E+05   7.02744162999999942E+05   7.02819162999999942E+05   7.02894162999999942E+05   7.02969162999999942E+05
             7.03044162999999942E+05   7.03119162999999942E+05   7.03194162999999942E+05   7.03269162999999942E+05   7.03344162999999942E+05
             7.03419162999999942E+05   7.03494162999999942E+05   7.03569162999999942E+05   7.03644162999999942E+05   7.03719162999999942E+05
             7.03794162999999942E+05   7.03869162999999942E+05   7.03944162999999942E+05
 ETA=   11   7.01919162999999942E+05   7.01994162999999942E+05   7.02069162999999942E+05   7.02144162999999942E+05   7.02219162999999942E+05
             7.02294162999999942E+05   7.02369162999999942E+05   7.02444162999999942E+05   7.02519162999999942E+05   7.02594162999999942E+05
             7.02669162999999942E+05   7.02744162999999942E+05   7.02819162999999942E+05   7.02894162999999942E+05   7.02969162999999942E+05
             7.03044162999999942E+05   7.03119162999999942E+05   7.03194162999999942E+05   7.03269162999999942E+05   7.03344162999999942E+05
             7.03419162999999942E+05   7.03494162999999942E+05   7.03569162999999942E+05   7.03644162999999942E+05   7.03719162999999942E+05
             7.03794162999999942E+05   7.03869162999999942E+05   7.03944162999999942E+05
 ETA=   12   7.01919162999999942E+05   7.01994162999999942E+05   7.02069162999999942E+05   7.02144162999999942E+05   7.02219162999999942E+05
             7.02294162999999942E+05   7.02369162999999942E+05   7.02444162999999942E+05   7.02519162999999942E+05   7.02594162999999942E+05
             7.02669162999999942E+05   7.02744162999999942E+05   7.02819162999999942E+05   7.02894162999999942E+05   7.02969162999999942E+05
             7.03044162999999942E+05   7.03119162999999942E+05   7.03194162999999942E+05   7.03269162999999942E+05   7.03344162999999942E+05
             7.03419162999999942E+05   7.03494162999999942E+05   7.03569162999999942E+05   7.03644162999999942E+05   7.03719162999999942E+05
             7.03794162999999942E+05   7.03869162999999942E+05   7.03944162999999942E+05
 ETA=   13   7.01919162999999942E+05   7.01994162999999942E+05   7.02069162999999942E+05   7.02144162999999942E+05   7.02219162999999942E+05
             7.02294162999999942E+05   7.02369162999999942E+05   7.02444162999999942E+05   7.02519162999999942E+05   7.02594162999999942E+05
             7.02669162999999942E+05   7.02744162999999942E+05   7.02819162999999942E+05   7.02894162999999942E+05   7.02969162999999942E+05
             7.03044162999999942E+05   7.03119162999999942E+05   7.03194162999999942E+05   7.03269162999999942E+05   7.03344162999999942E+05
             7.03419162999999942E+05   7.03494162999999942E+05   7.03569162999999942E+05   7.03644162999999942E+05   7.03719162999999942E+05
             7.03794162999999942E+05   7.03869162999999942E+05   7.03944162999999942E+05
 ETA=   14   7.01919162999999942E+05   7.01994162999999942E+05   7.02069162999999942E+05   7.02144162999999942E+05   7.02219162999999942E+05
             7.02294162999999942E+05   7.02369162999999942E+05   7.02444162999999942E+05   7.02519162999999942E+05   7.02594162999999942E+05
             7.02669162999999942E+05   7.02744162999999942E+05   7.02819162999999942E+05   7.02894162999999942E+05   7.02969162999999942E+05
             7.03044162999999942E+05   7.03119162999999942E+05   7.03194162999999942E+05   7.03269162999999942E+05   7.03344162999999942E+05
             7.03419162999999942E+05   7.03494162999999942E+05   7.03569162999999942E+05   7.03644162999999942E+05   7.03719162999999942E+05
             7.03794162999999942E+05   7.03869162999999942E+05   7.03944162999999942E+05
 ETA=   15   7.01919162999999942E+05   7.01994162999999942E+05   7.02069162999999942E+05   7.02144162999999942E+05   7.02219162999999942E+05
             7.02294162999999942E+05   7.02369162999999942E+05   7.02444162999999942E+05   7.02519162999999942E+05   7.02594162999999942E+05
             7.02669162999999942E+05   7.02744162999999942E+05   7.02819162999999942E+05   7.02894162999999942E+05   7.02969162999999942E+05
             7.03044162999999942E+05   7.03119162999999942E+05   7.03194162999999942E+05   7.03269162999999942E+05   7.03344162999999942E+05
             7.03419162999999942E+05   7.03494162999999942E+05   7.03569162999999942E+05   7.03644162999999942E+05   7.03719162999999942E+05
             7.03794162999999942E+05   7.03869162999999942E+05   7.03944162999999942E+05
 ETA=   16   7.01919162999999942E+05   7.01994162999999942E+05   7.02069162999999942E+05   7.02144162999999942E+05   7.02219162999999942E+05
             7.02294162999999942E+05   7.02369162999999942E+05   7.02444162999999942E+05   7.02519162999999942E+05   7.02594162999999942E+05
             7.02669162999999942E+05   7.02744162999999942E+05   7.02819162999999942E+05   7.02894162999999942E+05   7.02969162999999942E+05
             7.03044162999999942E+05   7.03119162999999942E+05   7.03194162999999942E+05   7.03269162999999942E+05   7.03344162999999942E+05
             7.03419162999999942E+05   7.03494162999999942E+05   7.03569162999999942E+05   7.03644162999999942E+05   7.03719162999999942E+05
             7.03794162999999942E+05   7.03869162999999942E+05   7.03944162999999942E+05
 ETA=   17   7.01919162999999942E+05   7.01994162999999942E+05   7.02069162999999942E+05   7.02144162999999942E+05   7.02219162999999942E+05
             7.02294162999999942E+05   7.02369162999999942E+05   7.02444162999999942E+05   7.02519162999999942E+05   7.02594162999999942E+05
             7.02669162999999942E+05   7.02744162999999942E+05   7.02819162999999942E+05   7.02894162999999942E+05   7.02969162999999942E+05
             7.03044162999999942E+05   7.03119162999999942E+05   7.03194162999999942E+05   7.03269162999999942E+05   7.03344162999999942E+05
             7.03419162999999942E+05   7.03494162999999942E+05   7.03569162999999942E+05   7.03644162999999942E+05   7.03719162999999942E+05
             7.03794162999999942E+05   7.03869162999999942E+05   7.03944162999999942E+05
 ETA=   18   7.01919162999999942E+05   7.01994162999999942E+05   7.02069162999999942E+05   7.02144162999999942E+05   7.02219162999999942E+05
             7.02294162999999942E+05   7.02369162999999942E+05   7.02444162999999942E+05   7.02519162999999942E+05   7.02594162999999942E+05
             7.02669162999999942E+05   7.02744162999999942E+05   7.02819162999999942E+05   7.02894162999999942E+05   7.02969162999999942E+05
             7.03044162999999942E+05   7.03119162999999942E+05   7.03194162999999942E+05   7.03269162999999942E+05   7.03344162999999942E+05
             7.03419162999999942E+05   7.03494162999999942E+05   7.03569162999999942E+05   7.03644162999999942E+05   7.03719162999999942E+05
             7.03794162999999942E+05   7.03869162999999942E+05   7.03944162999999942E+05
 ETA=   19   7.01919162999999942E+05   7.01994162999999942E+05   7.02069162999999942E+05   7.02144162999999942E+05   7.02219162999999942E+05
             7.02294162999999942E+05   7.02369162999999942E+05   7.02444162999999942E+05   7.02519162999999942E+05   7.02594162999999942E+05
             7.02669162999999942E+05   7.02744162999999942E+05   7.02819162999999942E+05   7.02894162999999942E+05   7.02969162999999942E+05
             7.03044162999999942E+05   7.03119162999999942E+05   7.03194162999999942E+05   7.03269162999999942E+05   7.03344162999999942E+05
             7.03419162999999942E+05   7.03494162999999942E+05   7.03569162999999942E+05   7.03644162999999942E+05   7.03719162999999942E+05
             7.03794162999999942E+05   7.03869162999999942E+05   7.03944162999999942E+05
 ETA=    1   0.00000000000000000E+00   0.00000000000000000E+00   0.00000000000000000E+00   0.00000000000000000E+00   0.00000000000000000E+00
             0.00000000000000000E+00   0.00000000000000000E+00   0.00000000000000000E+00   0.00000000000000000E+00   0.00000000000000000E+00
             0.00000000000000000E+00   0.00000000000000000E+00   0.00000000000000000E+00   0.00000000000000000E+00   9.32303100799999945E+06
             9.32303100799999945E+06   9.32303100799999945E+06   9.32303100799999945E+06   9.32303100799999945E+06   9.32303100799999945E+06
             9.32303100799999945E+06   9.32303100799999945E+06   0.00000000000000000E+00   0.00000000000000000E+00   0.00000000000000000E+00
             0.00000000000000000E+00   0.00000000000000000E+00   0.00000000000000000E+00
 ETA=    2   0.00000000000000000E+00   0.00000000000000000E+00   0.00000000000000000E+00   0.00000000000000000E+00   0.00000000000000000E+00
             0.00000000000000000E+00   0.00000000000000000E+00   0.00000000000000000E+00   9.32310600799999945E+06   9.32310600799999945E+06
             9.32310600799999945E+06   9.32310600799999945E+06   9.32310600799999945E+06   9.32310600799999945E+06   9.32310600799999945E+06
             9.32310600799999945E+06   9.32310600799999945E+06   9.32310600799999945E+06   9.32310600799999945E+06   9.32310600799999945E+06
             9.32310600799999945E+06   9.32310600799999945E+06   9.32310600799999945E+06   9.32310600799999945E+06   9.32310600799999945E+06
             9.32310600799999945E+06   9.32310600799999945E+06   9.32310600799999945E+06
 ETA=    3   0.00000000000000000E+00   0.00000000000000000E+00   0.00000000000000000E+00   0.00000000000000000E+00   0.00000000000000000E+00
             9.32318100799999945E+06   9.32318100799999945E+06   9.32318100799999945E+06   9.32318100799999945E+06   9.32318100799999945E+06
             9.32318100799999945E+06   9.32318100799999945E+06   9.32318100799999945E+06   9.32318100799999945E+06   9.32318100799999945E+06
             9.32318100799999945E+06   9.32318100799999945E+06   9.32318100799999945E+06   9.32318100799999945E+06   9.32318100799999945E+06
             9.32318100799999945E+06   9.32318100799999945E+06   9.32318100799999945E+06   9.32318100799999945E+06   9.32318100799999945E+06
             9.32318100799999945E+06   9.32318100799999945E+06   9.32318100799999945E+06
 ETA=    4   0.00000000000000000E+00   0.00000000000000000E+00   0.00000000000000000E+00   0.00000000000000000E+00   0.00000000000000000E+00
             9.32325600799999945E+06   9.32325600799999945E+06   9.32325600799999945E+06   9.32325600799999945E+06   9.32325600799999945E+06
             9.32325600799999945E+06   9.32325600799999945E+06   9.32325600799999945E+06   9.32325600799999945E+06   9.32325600799999945E+06
             9.32325600799999945E+06   9.32325600799999945E+06   9.32325600799999945E+06   9.32325600799999945E+06   9.32325600799999945E+06
             9.32325600799999945E+06   9.32325600799999945E+06   9.32325600799999945E+06   9.32325600799999945E+06   9.32325600799999945E+06
             9.32325600799999945E+06   9.32325600799999945E+06   9.32325600799999945E+06
 ETA=    5   0.00000000000000000E+00   0.00000000000000000E+00   0.00000000000000000E+00   0.00000000000000000E+00   0.00000000000000000E+00
             9.32333100799999945E+06   9.32333100799999945E+06   9.32333100799999945E+06   9.32333100799999945E+06   9.32333100799999945E+06
             9.32333100799999945E+06   9.32333100799999945E+06   9.32333100799999945E+06   9.32333100799999945E+06   9.32333100799999945E+06
             9.32333100799999945E+06   9.32333100799999945E+06   9.32333100799999945E+06   9.32333100799999945E+06   9.32333100799999945E+06
             9.32333100799999945E+06   9.32333100799999945E+06   9.32333100799999945E+06   9.32333100799999945E+06   9.32333100799999945E+06
             9.32333100799999945E+06   9.32333100799999945E+06   9.32333100799999945E+06
 ETA=    6   0.00000000000000000E+00   0.00000000000000000E+00   0.00000000000000000E+00   0.00000000000000000E+00   0.00000000000000000E+00
             9.32340600799999945E+06   9.32340600799999945E+06   9.32340600799999945E+06   9.32340600799999945E+06   9.32340600799999945E+06
             9.32340600799999945E+06   9.32340600799999945E+06   9.32340600799999945E+06   9.32340600799999945E+06   9.32340600799999945E+06
             9.32340600799999945E+06   9.32340600799999945E+06   9.32340600799999945E+06   9.32340600799999945E+06   9.32340600799999945E+06
             9.32340600799999945E+06   9.32340600799999945E+06   9.32340600799999945E+06   9.32340600799999945E+06   9.32340600799999945E+06
             9.32340600799999945E+06   9.32340600799999945E+06   9.32340600799999945E+06
 ETA=    7   0.00000000000000000E+00   0.00000000000000000E+00   0.00000000000000000E+00   0.00000000000000000E+00   9.32348100799999945E+06
             9.32348100799999945E+06   9.32348100799999945E+06   9.32348100799999945E+06   9.32348100799999945E+06   9.32348100799999945E+06
             9.32348100799999945E+06   9.32348100799999945E+06   9.32348100799999945E+06   9.32348100799999945E+06   9.32348100799999945E+06
             9.32348100799999945E+06   9.32348100799999945E+06   9.32348100799999945E+06   9.32348100799999945E+06   9.32348100799999945E+06
             9.32348100799999945E+06   9.32348100799999945E+06   9.32348100799999945E+06   9.32348100799999945E+06   9.32348100799999945E+06
             9.32348100799999945E+06   9.32348100799999945E+06   9.32348100799999945E+06
 ETA=    8   0.00000000000000000E+00   9.32355600799999945E+06   9.32355600799999945E+06   9.32355600799999945E+06   9.32355600799999945E+06
             9.32355600799999945E+06   9.32355600799999945E+06   9.32355600799999945E+06   9.32355600799999945E+06   9.32355600799999945E+06
             9.32355600799999945E+06   9.32355600799999945E+06   9.32355600799999945E+06   9.32355600799999945E+06   9.32355600799999945E+06
             9.32355600799999945E+06   9.32355600799999945E+06   9.32355600799999945E+06   9.32355600799999945E+06   9.32355600799999945E+06
             9.32355600799999945E+06   9.32355600799999945E+06   9.32355600799999945E+06   9.32355600799999945E+06   9.32355600799999945E+06
             9.32355600799999945E+06   9.32355600799999945E+06   9.32355600799999945E+06
 ETA=    9   9.32363100799999945E+06   9.32363100799999945E+06   9.32363100799999945E+06   9.32363100799999945E+06   9.32363100799999945E+06
             9.32363100799999945E+06   9.32363100799999945E+06   9.32363100799999945E+06   9.32363100799999945E+06   9.32363100799999945E+06
             9.32363100799999945E+06   9.32363100799999945E+06   9.32363100799999945E+06   9.32363100799999945E+06   9.32363100799999945E+06
             9.32363100799999945E+06   9.32363100799999945E+06   9.32363100799999945E+06   9.32363100799999945E+06   9.32363100799999945E+06
             9.32363100799999945E+06   9.32363100799999945E+06   9.32363100799999945E+06   9.32363100799999945E+06   9.32363100799999945E+06
             9.32363100799999945E+06   9.32363100799999945E+06   9.32363100799999945E+06
 ETA=   10   9.32370600799999945E+06   9.32370600799999945E+06   9.32370600799999945E+06   9.32370600799999945E+06   9.32370600799999945E+06
             9.32370600799999945E+06   9.32370600799999945E+06   9.32370600799999945E+06   9.32370600799999945E+06   9.32370600799999945E+06
             9.32370600799999945E+06   9.32370600799999945E+06   9.32370600799999945E+06   9.32370600799999945E+06   9.32370600799999945E+06
             9.32370600799999945E+06   9.32370600799999945E+06   9.32370600799999945E+06   9.32370600799999945E+06   9.32370600799999945E+06
             9.32370600799999945E+06   9.32370600799999945E+06   9.32370600799999945E+06   9.32370600799999945E+06   9.32370600799999945E+06
             9.32370600799999945E+06   9.32370600799999945E+06   9.32370600799999945E+06
 ETA=   11   9.32378100799999945E+06   9.32378100799999945E+06   9.32378100799999945E+06   9.32378100799999945E+06   9.32378100799999945E+06
             9.32378100799999945E+06   9.32378100799999945E+06   9.32378100799999945E+06   9.32378100799999945E+06   9.32378100799999945E+06
             9.32378100799999945E+06   9.32378100799999945E+06   9.32378100799999945E+06   9.32378100799999945E+06   9.32378100799999945E+06
             9.32378100799999945E+06   9.32378100799999945E+06   9.32378100799999945E+06   9.32378100799999945E+06   9.32378100799999945E+06
             9.32378100799999945E+06   9.32378100799999945E+06   9.32378100799999945E+06   9.32378100799999945E+06   9.32378100799999945E+06
             9.32378100799999945E+06   9.32378100799999945E+06   9.32378100799999945E+06
 ETA=   12   9.32385600799999945E+06   9.32385600799999945E+06   9.32385600799999945E+06   9.32385600799999945E+06   9.32385600799999945E+06
             9.32385600799999945E+06   9.32385600799999945E+06   9.32385600799999945E+06   9.32385600799999945E+06   9.32385600799999945E+06
             9.32385600799999945E+06   9.32385600799999945E+06   9.32385600799999945E+06   9.32385600799999945E+06   9.32385600799999945E+06
             9.32385600799999945E+06   9.32385600799999945E+06   9.32385600799999945E+06   9.32385600799999945E+06   9.32385600799999945E+06
             9.32385600799999945E+06   9.32385600799999945E+06   9.32385600799999945E+06   9.32385600799999945E+06   9.32385600799999945E+06
             9.32385600799999945E+06   9.32385600799999945E+06   9.32385600799999945E+06
 ETA=   13   9.32393100799999945E+06   9.32393100799999945E+06   9.32393100799999945E+06   9.32393100799999945E+06   9.32393100799999945E+06
             9.32393100799999945E+06   9.32393100799999945E+06   9.32393100799999945E+06   9.32393100799999945E+06   9.32393100799999945E+06
             9.32393100799999945E+06   9.32393100799999945E+06   9.32393100799999945E+06   9.32393100799999945E+06   9.32393100799999945E+06
             9.32393100799999945E+06   9.32393100799999945E+06   9.32393100799999945E+06   9.32393100799999945E+06   9.32393100799999945E+06
             9.32393100799999945E+06   9.32393100799999945E+06   9.32393100799999945E+06   9.32393100799999945E+06   9.32393100799999945E+06
             9.32393100799999945E+06   9.32393100799999945E+06   9.32393100799999945E+06
 ETA=   14   9.32400600799999945E+06   9.32400600799999945E+06   9.32400600799999945E+06   9.32400600799999945E+06   9.32400600799999945E+06
             9.32400600799999945E+06   9.32400600799999945E+06   9.32400600799999945E+06   9.32400600799999945E+06   9.32400600799999945E+06
             9.32400600799999945E+06   9.32400600799999945E+06   9.32400600799999945E+06   9.32400600799999945E+06   9.32400600799999945E+06
             9.32400600799999945E+06   9.32400600799999945E+06   9.32400600799999945E+06   9.32400600799999945E+06   9.32400600799999945E+06
             9.32400600799999945E+06   9.32400600799999945E+06   9.32400600799999945E+06   9.32400600799999945E+06   9.32400600799999945E+06
             9.32400600799999945E+06   9.32400600799999945E+06   9.32400600799999945E+06
 ETA=   15   9.32408100799999945E+06   9.32408100799999945E+06   9.32408100799999945E+06   9.32408100799999945E+06   9.32408100799999945E+06
             9.32408100799999945E+06   9.32408100799999945E+06   9.32408100799999945E+06   9.32408100799999945E+06   9.32408100799999945E+06
             9.32408100799999945E+06   9.32408100799999945E+06   9.32408100799999945E+06   9.32408100799999945E+06   9.32408100799999945E+06
             9.32408100799999945E+06   9.32408100799999945E+06   9.32408100799999945E+06   9.32408100799999945E+06   9.32408100799999945E+06
             9.32408100799999945E+06   9.32408100799999945E+06   9.32408100799999945E+06   9.32408100799999945E+06   9.32408100799999945E+06
             9.32408100799999945E+06   9.32408100799999945E+06   9.32408100799999945E+06
 ETA=   16   9.32415600799999945E+06   9.32415600799999945E+06   9.32415600799999945E+06   9.32415600799999945E+06   9.32415600799999945E+06
             9.32415600799999945E+06   9.32415600799999945E+06   9.32415600799999945E+06   9.32415600799999945E+06   9.32415600799999945E+06
             9.32415600799999945E+06   9.32415600799999945E+06   9.32415600799999945E+06   9.32415600799999945E+06   9.32415600799999945E+06
             9.32415600799999945E+06   9.32415600799999945E+06   9.32415600799999945E+06   9.32415600799999945E+06   9.32415600799999945E+06
             9.32415600799999945E+06   9.32415600799999945E+06   9.32415600799999945E+06   9.32415600799999945E+06   9.32415600799999945E+06
             9.32415600799999945E+06   9.32415600799999945E+06   9.32415600799999945E+06
 ETA=   17   9.32423100799999945E+06   9.32423100799999945E+06   9.32423100799999945E+06   9.32423100799999945E+06   9.32423100799999945E+06
             9.32423100799999945E+06   9.32423100799999945E+06   9.32423100799999945E+06   9.32423100799999945E+06   9.32423100799999945E+06
             9.32423100799999945E+06   9.32423100799999945E+06   9.32423100799999945E+06   9.32423100799999945E+06   9.32423100799999945E+06
             9.32423100799999945E+06   9.32423100799999945E+06   9.32423100799999945E+06   9.32423100799999945E+06   9.32423100799999945E+06
             9.32423100799999945E+06   9.32423100799999945E+06   9.32423100799999945E+06   9.32423100799999945E+06   9.32423100799999945E+06
             9.32423100799999945E+06   9.32423100799999945E+06   9.32423100799999945E+06
 ETA=   18   9.32430600799999945E+06   9.32430600799999945E+06   9.32430600799999945E+06   9.32430600799999945E+06   9.32430600799999945E+06
             9.32430600799999945E+06   9.32430600799999945E+06   9.32430600799999945E+06   9.32430600799999945E+06   9.32430600799999945E+06
             9.32430600799999945E+06   9.32430600799999945E+06   9.32430600799999945E+06   9.32430600799999945E+06   9.32430600799999945E+06
             9.32430600799999945E+06   9.32430600799999945E+06   9.32430600799999945E+06   9.32430600799999945E+06   9.32430600799999945E+06
             9.32430600799999945E+06   9.32430600799999945E+06   9.32430600799999945E+06   9.32430600799999945E+06   9.32430600799999945E+06
             9.32430600799999945E+06   9.32430600799999945E+06   9.32430600799999945E+06
 ETA=   19   9.32438100799999945E+06   9.32438100799999945E+06   9.32438100799999945E+06   9.32438100799999945E+06   9.32438100799999945E+06
             9.32438100799999945E+06   9.32438100799999945E+06   9.32438100799999945E+06   9.32438100799999945E+06   9.32438100799999945E+06
             9.32438100799999945E+06   9.32438100799999945E+06   9.32438100799999945E+06   9.32438100799999945E+06   9.32438100799999945E+06
             9.32438100799999945E+06   9.32438100799999945E+06   9.32438100799999945E+06   9.32438100799999945E+06   9.32438100799999945E+06
             9.32438100799999945E+06   9.32438100799999945E+06   9.32438100799999945E+06   9.32438100799999945E+06   9.32438100799999945E+06
             9.32438100799999945E+06   9.32438100799999945E+06   9.32438100799999945E+06
