*
* Deltares, Delft3D-RGFGRID Version 4.18.01.18383, Sep  7 2011, 14:23:22
* File creation date: 2026-02-10, 10:33:27
*
Coordinate System = Cartesian
      82      55
 0 0 0
 ETA=    1   0.00000000000000000E+00   0.00000000000000000E+00   0.00000000000000000E+00   0.00000000000000000E+00   0.00000000000000000E+00
             0.00000000000000000E+00   0.00000000000000000E+00   0.00000000000000000E+00   0.00000000000000000E+00   0.00000000000000000E+00
             0.00000000000000000E+00   0.00000000000000000E+00   0.00000000000000000E+00   0.00000000000000000E+00   0.00000000000000000E+00
             0.00000000000000000E+00   0.00000000000000000E+00   0.00000000000000000E+00   0.00000000000000000E+00   0.00000000000000000E+00
             0.00000000000000000E+00   0.00000000000000000E+00   0.00000000000000000E+00   0.00000000000000000E+00   0.00000000000000000E+00
             0.00000000000000000E+00   0.00000000000000000E+00   0.00000000000000000E+00   0.00000000000000000E+00   0.00000000000000000E+00
             0.00000000000000000E+00   0.00000000000000000E+00   0.00000000000000000E+00   0.00000000000000000E+00   0.00000000000000000E+00
             0.00000000000000000E+00   0.00000000000000000E+00   0.00000000000000000E+00   0.00000000000000000E+00   0.00000000000000000E+00
             0.00000000000000000E+00   0.00000000000000000E+00   0.00000000000000000E+00   7.02994162999999942E+05   7.03019162999999942E+05
             7.03044162999999942E+05   7.03069162999999942E+05   7.03094162999999942E+05   7.03119162999999942E+05   7.03144162999999942E+05
             7.03169162999999942E+05   7.03194162999999942E+05   7.03219162999999942E+05   7.03244162999999942E+05   7.03269162999999942E+05
             7.03294162999999942E+05   7.03319162999999942E+05   7.03344162999999942E+05   7.03369162999999942E+05   7.03394162999999942E+05
             7.03419162999999942E+05   7.03444162999999942E+05   7.03469162999999942E+05   0.00000000000000000E+00   0.00000000000000000E+00
             0.00000000000000000E+00   0.00000000000000000E+00   0.00000000000000000E+00   0.00000000000000000E+00   0.00000000000000000E+00
             0.00000000000000000E+00   0.00000000000000000E+00   0.00000000000000000E+00   0.00000000000000000E+00   0.00000000000000000E+00
             0.00000000000000000E+00   0.00000000000000000E+00   0.00000000000000000E+00   0.00000000000000000E+00   0.00000000000000000E+00
             0.00000000000000000E+00   0.00000000000000000E+00
 ETA=    2   0.00000000000000000E+00   0.00000000000000000E+00   0.00000000000000000E+00   0.00000000000000000E+00   0.00000000000000000E+00
             0.00000000000000000E+00   0.00000000000000000E+00   0.00000000000000000E+00   0.00000000000000000E+00   0.00000000000000000E+00
             0.00000000000000000E+00   0.00000000000000000E+00   0.00000000000000000E+00   0.00000000000000000E+00   0.00000000000000000E+00
             0.00000000000000000E+00   0.00000000000000000E+00   0.00000000000000000E+00   0.00000000000000000E+00   0.00000000000000000E+00
             0.00000000000000000E+00   0.00000000000000000E+00   0.00000000000000000E+00   0.00000000000000000E+00   0.00000000000000000E+00
             0.00000000000000000E+00   0.00000000000000000E+00   0.00000000000000000E+00   0.00000000000000000E+00   0.00000000000000000E+00
             0.00000000000000000E+00   0.00000000000000000E+00   0.00000000000000000E+00   0.00000000000000000E+00   0.00000000000000000E+00
             0.00000000000000000E+00   0.00000000000000000E+00   0.00000000000000000E+00   0.00000000000000000E+00   0.00000000000000000E+00
             0.00000000000000000E+00   0.00000000000000000E+00   7.02969162999999942E+05   7.02994162999999942E+05   7.03019162999999942E+05
             7.03044162999999942E+05   7.03069162999999942E+05   7.03094162999999942E+05   7.03119162999999942E+05   7.03144162999999942E+05
             7.03169162999999942E+05   7.03194162999999942E+05   7.03219162999999942E+05   7.03244162999999942E+05   7.03269162999999942E+05
             7.03294162999999942E+05   7.03319162999999942E+05   7.03344162999999942E+05   7.03369162999999942E+05   7.03394162999999942E+05
             7.03419162999999942E+05   7.03444162999999942E+05   7.03469162999999942E+05   0.00000000000000000E+00   0.00000000000000000E+00
             0.00000000000000000E+00   0.00000000000000000E+00   0.00000000000000000E+00   0.00000000000000000E+00   0.00000000000000000E+00
             0.00000000000000000E+00   0.00000000000000000E+00   0.00000000000000000E+00   0.00000000000000000E+00   0.00000000000000000E+00
             0.00000000000000000E+00   0.00000000000000000E+00   0.00000000000000000E+00   0.00000000000000000E+00   0.00000000000000000E+00
             0.00000000000000000E+00   0.00000000000000000E+00
 ETA=    3   0.00000000000000000E+00   0.00000000000000000E+00   0.00000000000000000E+00   0.00000000000000000E+00   0.00000000000000000E+00
             0.00000000000000000E+00   0.00000000000000000E+00   0.00000000000000000E+00   0.00000000000000000E+00   0.00000000000000000E+00
             0.00000000000000000E+00   0.00000000000000000E+00   0.00000000000000000E+00   0.00000000000000000E+00   0.00000000000000000E+00
             0.00000000000000000E+00   0.00000000000000000E+00   0.00000000000000000E+00   0.00000000000000000E+00   0.00000000000000000E+00
             0.00000000000000000E+00   0.00000000000000000E+00   0.00000000000000000E+00   0.00000000000000000E+00   0.00000000000000000E+00
             0.00000000000000000E+00   0.00000000000000000E+00   0.00000000000000000E+00   0.00000000000000000E+00   0.00000000000000000E+00
             0.00000000000000000E+00   0.00000000000000000E+00   0.00000000000000000E+00   0.00000000000000000E+00   0.00000000000000000E+00
             0.00000000000000000E+00   0.00000000000000000E+00   0.00000000000000000E+00   0.00000000000000000E+00   0.00000000000000000E+00
             0.00000000000000000E+00   0.00000000000000000E+00   7.02969162999999942E+05   7.02994162999999942E+05   7.03019162999999942E+05
             7.03044162999999942E+05   7.03069162999999942E+05   7.03094162999999942E+05   7.03119162999999942E+05   7.03144162999999942E+05
             7.03169162999999942E+05   7.03194162999999942E+05   7.03219162999999942E+05   7.03244162999999942E+05   7.03269162999999942E+05
             7.03294162999999942E+05   7.03319162999999942E+05   7.03344162999999942E+05   7.03369162999999942E+05   7.03394162999999942E+05
             7.03419162999999942E+05   7.03444162999999942E+05   7.03469162999999942E+05   0.00000000000000000E+00   0.00000000000000000E+00
             0.00000000000000000E+00   0.00000000000000000E+00   0.00000000000000000E+00   0.00000000000000000E+00   0.00000000000000000E+00
             0.00000000000000000E+00   0.00000000000000000E+00   0.00000000000000000E+00   0.00000000000000000E+00   0.00000000000000000E+00
             0.00000000000000000E+00   0.00000000000000000E+00   0.00000000000000000E+00   0.00000000000000000E+00   0.00000000000000000E+00
             0.00000000000000000E+00   0.00000000000000000E+00
 ETA=    4   0.00000000000000000E+00   0.00000000000000000E+00   0.00000000000000000E+00   0.00000000000000000E+00   0.00000000000000000E+00
             0.00000000000000000E+00   0.00000000000000000E+00   0.00000000000000000E+00   0.00000000000000000E+00   0.00000000000000000E+00
             0.00000000000000000E+00   0.00000000000000000E+00   0.00000000000000000E+00   0.00000000000000000E+00   0.00000000000000000E+00
             0.00000000000000000E+00   0.00000000000000000E+00   0.00000000000000000E+00   0.00000000000000000E+00   0.00000000000000000E+00
             0.00000000000000000E+00   0.00000000000000000E+00   0.00000000000000000E+00   0.00000000000000000E+00   7.02519162999999942E+05
             7.02544162999999942E+05   7.02569162999999942E+05   7.02594162999999942E+05   7.02619162999999942E+05   7.02644162999999942E+05
             7.02669162999999942E+05   7.02694162999999942E+05   7.02719162999999942E+05   7.02744162999999942E+05   7.02769162999999942E+05
             7.02794162999999942E+05   7.02819162999999942E+05   7.02844162999999942E+05   7.02869162999999942E+05   7.02894162999999942E+05
             7.02919162999999942E+05   7.02944162999999942E+05   7.02969162999999942E+05   7.02994162999999942E+05   7.03019162999999942E+05
             7.03044162999999942E+05   7.03069162999999942E+05   7.03094162999999942E+05   7.03119162999999942E+05   7.03144162999999942E+05
             7.03169162999999942E+05   7.03194162999999942E+05   7.03219162999999942E+05   7.03244162999999942E+05   7.03269162999999942E+05
             7.03294162999999942E+05   7.03319162999999942E+05   7.03344162999999942E+05   7.03369162999999942E+05   7.03394162999999942E+05
             7.03419162999999942E+05   7.03444162999999942E+05   7.03469162999999942E+05   7.03494162999999942E+05   7.03519162999999942E+05
             7.03544162999999942E+05   7.03569162999999942E+05   7.03594162999999942E+05   7.03619162999999942E+05   7.03644162999999942E+05
             7.03669162999999942E+05   7.03694162999999942E+05   7.03719162999999942E+05   7.03744162999999942E+05   7.03769162999999942E+05
             7.03794162999999942E+05   7.03819162999999942E+05   7.03844162999999942E+05   7.03869162999999942E+05   7.03894162999999942E+05
             7.03919162999999942E+05   7.03944162999999942E+05
 ETA=    5   0.00000000000000000E+00   0.00000000000000000E+00   0.00000000000000000E+00   0.00000000000000000E+00   0.00000000000000000E+00
             0.00000000000000000E+00   0.00000000000000000E+00   0.00000000000000000E+00   0.00000000000000000E+00   0.00000000000000000E+00
             0.00000000000000000E+00   0.00000000000000000E+00   0.00000000000000000E+00   0.00000000000000000E+00   0.00000000000000000E+00
             0.00000000000000000E+00   0.00000000000000000E+00   0.00000000000000000E+00   0.00000000000000000E+00   0.00000000000000000E+00
             0.00000000000000000E+00   0.00000000000000000E+00   0.00000000000000000E+00   0.00000000000000000E+00   7.02519162999999942E+05
             7.02544162999999942E+05   7.02569162999999942E+05   7.02594162999999942E+05   7.02619162999999942E+05   7.02644162999999942E+05
             7.02669162999999942E+05   7.02694162999999942E+05   7.02719162999999942E+05   7.02744162999999942E+05   7.02769162999999942E+05
             7.02794162999999942E+05   7.02819162999999942E+05   7.02844162999999942E+05   7.02869162999999942E+05   7.02894162999999942E+05
             7.02919162999999942E+05   7.02944162999999942E+05   7.02969162999999942E+05   7.02994162999999942E+05   7.03019162999999942E+05
             7.03044162999999942E+05   7.03069162999999942E+05   7.03094162999999942E+05   7.03119162999999942E+05   7.03144162999999942E+05
             7.03169162999999942E+05   7.03194162999999942E+05   7.03219162999999942E+05   7.03244162999999942E+05   7.03269162999999942E+05
             7.03294162999999942E+05   7.03319162999999942E+05   7.03344162999999942E+05   7.03369162999999942E+05   7.03394162999999942E+05
             7.03419162999999942E+05   7.03444162999999942E+05   7.03469162999999942E+05   7.03494162999999942E+05   7.03519162999999942E+05
             7.03544162999999942E+05   7.03569162999999942E+05   7.03594162999999942E+05   7.03619162999999942E+05   7.03644162999999942E+05
             7.03669162999999942E+05   7.03694162999999942E+05   7.03719162999999942E+05   7.03744162999999942E+05   7.03769162999999942E+05
             7.03794162999999942E+05   7.03819162999999942E+05   7.03844162999999942E+05   7.03869162999999942E+05   7.03894162999999942E+05
             7.03919162999999942E+05   7.03944162999999942E+05
 ETA=    6   0.00000000000000000E+00   0.00000000000000000E+00   0.00000000000000000E+00   0.00000000000000000E+00   0.00000000000000000E+00
             0.00000000000000000E+00   0.00000000000000000E+00   0.00000000000000000E+00   0.00000000000000000E+00   0.00000000000000000E+00
             0.00000000000000000E+00   0.00000000000000000E+00   0.00000000000000000E+00   0.00000000000000000E+00   0.00000000000000000E+00
             0.00000000000000000E+00   0.00000000000000000E+00   0.00000000000000000E+00   0.00000000000000000E+00   0.00000000000000000E+00
             0.00000000000000000E+00   0.00000000000000000E+00   0.00000000000000000E+00   0.00000000000000000E+00   7.02519162999999942E+05
             7.02544162999999942E+05   7.02569162999999942E+05   7.02594162999999942E+05   7.02619162999999942E+05   7.02644162999999942E+05
             7.02669162999999942E+05   7.02694162999999942E+05   7.02719162999999942E+05   7.02744162999999942E+05   7.02769162999999942E+05
             7.02794162999999942E+05   7.02819162999999942E+05   7.02844162999999942E+05   7.02869162999999942E+05   7.02894162999999942E+05
             7.02919162999999942E+05   7.02944162999999942E+05   7.02969162999999942E+05   7.02994162999999942E+05   7.03019162999999942E+05
             7.03044162999999942E+05   7.03069162999999942E+05   7.03094162999999942E+05   7.03119162999999942E+05   7.03144162999999942E+05
             7.03169162999999942E+05   7.03194162999999942E+05   7.03219162999999942E+05   7.03244162999999942E+05   7.03269162999999942E+05
             7.03294162999999942E+05   7.03319162999999942E+05   7.03344162999999942E+05   7.03369162999999942E+05   7.03394162999999942E+05
             7.03419162999999942E+05   7.03444162999999942E+05   7.03469162999999942E+05   7.03494162999999942E+05   7.03519162999999942E+05
             7.03544162999999942E+05   7.03569162999999942E+05   7.03594162999999942E+05   7.03619162999999942E+05   7.03644162999999942E+05
             7.03669162999999942E+05   7.03694162999999942E+05   7.03719162999999942E+05   7.03744162999999942E+05   7.03769162999999942E+05
             7.03794162999999942E+05   7.03819162999999942E+05   7.03844162999999942E+05   7.03869162999999942E+05   7.03894162999999942E+05
             7.03919162999999942E+05   7.03944162999999942E+05
 ETA=    7   0.00000000000000000E+00   0.00000000000000000E+00   0.00000000000000000E+00   0.00000000000000000E+00   0.00000000000000000E+00
             0.00000000000000000E+00   0.00000000000000000E+00   0.00000000000000000E+00   0.00000000000000000E+00   0.00000000000000000E+00
             0.00000000000000000E+00   0.00000000000000000E+00   0.00000000000000000E+00   0.00000000000000000E+00   0.00000000000000000E+00
             0.00000000000000000E+00   0.00000000000000000E+00   7.02344162999999942E+05   7.02369162999999942E+05   7.02394162999999942E+05
             7.02419162999999942E+05   7.02444162999999942E+05   7.02469162999999942E+05   7.02494162999999942E+05   7.02519162999999942E+05
             7.02544162999999942E+05   7.02569162999999942E+05   7.02594162999999942E+05   7.02619162999999942E+05   7.02644162999999942E+05
             7.02669162999999942E+05   7.02694162999999942E+05   7.02719162999999942E+05   7.02744162999999942E+05   7.02769162999999942E+05
             7.02794162999999942E+05   7.02819162999999942E+05   7.02844162999999942E+05   7.02869162999999942E+05   7.02894162999999942E+05
             7.02919162999999942E+05   7.02944162999999942E+05   7.02969162999999942E+05   7.02994162999999942E+05   7.03019162999999942E+05
             7.03044162999999942E+05   7.03069162999999942E+05   7.03094162999999942E+05   7.03119162999999942E+05   7.03144162999999942E+05
             7.03169162999999942E+05   7.03194162999999942E+05   7.03219162999999942E+05   7.03244162999999942E+05   7.03269162999999942E+05
             7.03294162999999942E+05   7.03319162999999942E+05   7.03344162999999942E+05   7.03369162999999942E+05   7.03394162999999942E+05
             7.03419162999999942E+05   7.03444162999999942E+05   7.03469162999999942E+05   7.03494162999999942E+05   7.03519162999999942E+05
             7.03544162999999942E+05   7.03569162999999942E+05   7.03594162999999942E+05   7.03619162999999942E+05   7.03644162999999942E+05
             7.03669162999999942E+05   7.03694162999999942E+05   7.03719162999999942E+05   7.03744162999999942E+05   7.03769162999999942E+05
             7.03794162999999942E+05   7.03819162999999942E+05   7.03844162999999942E+05   7.03869162999999942E+05   7.03894162999999942E+05
             7.03919162999999942E+05   7.03944162999999942E+05
 ETA=    8   0.00000000000000000E+00   0.00000000000000000E+00   0.00000000000000000E+00   0.00000000000000000E+00   0.00000000000000000E+00
             0.00000000000000000E+00   0.00000000000000000E+00   0.00000000000000000E+00   0.00000000000000000E+00   0.00000000000000000E+00
             0.00000000000000000E+00   0.00000000000000000E+00   0.00000000000000000E+00   0.00000000000000000E+00   0.00000000000000000E+00
             0.00000000000000000E+00   0.00000000000000000E+00   7.02344162999999942E+05   7.02369162999999942E+05   7.02394162999999942E+05
             7.02419162999999942E+05   7.02444162999999942E+05   7.02469162999999942E+05   7.02494162999999942E+05   7.02519162999999942E+05
             7.02544162999999942E+05   7.02569162999999942E+05   7.02594162999999942E+05   7.02619162999999942E+05   7.02644162999999942E+05
             7.02669162999999942E+05   7.02694162999999942E+05   7.02719162999999942E+05   7.02744162999999942E+05   7.02769162999999942E+05
             7.02794162999999942E+05   7.02819162999999942E+05   7.02844162999999942E+05   7.02869162999999942E+05   7.02894162999999942E+05
             7.02919162999999942E+05   7.02944162999999942E+05   7.02969162999999942E+05   7.02994162999999942E+05   7.03019162999999942E+05
             7.03044162999999942E+05   7.03069162999999942E+05   7.03094162999999942E+05   7.03119162999999942E+05   7.03144162999999942E+05
             7.03169162999999942E+05   7.03194162999999942E+05   7.03219162999999942E+05   7.03244162999999942E+05   7.03269162999999942E+05
             7.03294162999999942E+05   7.03319162999999942E+05   7.03344162999999942E+05   7.03369162999999942E+05   7.03394162999999942E+05
             7.03419162999999942E+05   7.03444162999999942E+05   7.03469162999999942E+05   7.03494162999999942E+05   7.03519162999999942E+05
             7.03544162999999942E+05   7.03569162999999942E+05   7.03594162999999942E+05   7.03619162999999942E+05   7.03644162999999942E+05
             7.03669162999999942E+05   7.03694162999999942E+05   7.03719162999999942E+05   7.03744162999999942E+05   7.03769162999999942E+05
             7.03794162999999942E+05   7.03819162999999942E+05   7.03844162999999942E+05   7.03869162999999942E+05   7.03894162999999942E+05
             7.03919162999999942E+05   7.03944162999999942E+05
 ETA=    9   0.00000000000000000E+00   0.00000000000000000E+00   0.00000000000000000E+00   0.00000000000000000E+00   0.00000000000000000E+00
             0.00000000000000000E+00   0.00000000000000000E+00   0.00000000000000000E+00   0.00000000000000000E+00   0.00000000000000000E+00
             0.00000000000000000E+00   0.00000000000000000E+00   0.00000000000000000E+00   0.00000000000000000E+00   0.00000000000000000E+00
             0.00000000000000000E+00   0.00000000000000000E+00   7.02344162999999942E+05   7.02369162999999942E+05   7.02394162999999942E+05
             7.02419162999999942E+05   7.02444162999999942E+05   7.02469162999999942E+05   7.02494162999999942E+05   7.02519162999999942E+05
             7.02544162999999942E+05   7.02569162999999942E+05   7.02594162999999942E+05   7.02619162999999942E+05   7.02644162999999942E+05
             7.02669162999999942E+05   7.02694162999999942E+05   7.02719162999999942E+05   7.02744162999999942E+05   7.02769162999999942E+05
             7.02794162999999942E+05   7.02819162999999942E+05   7.02844162999999942E+05   7.02869162999999942E+05   7.02894162999999942E+05
             7.02919162999999942E+05   7.02944162999999942E+05   7.02969162999999942E+05   7.02994162999999942E+05   7.03019162999999942E+05
             7.03044162999999942E+05   7.03069162999999942E+05   7.03094162999999942E+05   7.03119162999999942E+05   7.03144162999999942E+05
             7.03169162999999942E+05   7.03194162999999942E+05   7.03219162999999942E+05   7.03244162999999942E+05   7.03269162999999942E+05
             7.03294162999999942E+05   7.03319162999999942E+05   7.03344162999999942E+05   7.03369162999999942E+05   7.03394162999999942E+05
             7.03419162999999942E+05   7.03444162999999942E+05   7.03469162999999942E+05   7.03494162999999942E+05   7.03519162999999942E+05
             7.03544162999999942E+05   7.03569162999999942E+05   7.03594162999999942E+05   7.03619162999999942E+05   7.03644162999999942E+05
             7.03669162999999942E+05   7.03694162999999942E+05   7.03719162999999942E+05   7.03744162999999942E+05   7.03769162999999942E+05
             7.03794162999999942E+05   7.03819162999999942E+05   7.03844162999999942E+05   7.03869162999999942E+05   7.03894162999999942E+05
             7.03919162999999942E+05   7.03944162999999942E+05
 ETA=   10   0.00000000000000000E+00   0.00000000000000000E+00   0.00000000000000000E+00   0.00000000000000000E+00   0.00000000000000000E+00
             0.00000000000000000E+00   0.00000000000000000E+00   0.00000000000000000E+00   0.00000000000000000E+00   0.00000000000000000E+00
             0.00000000000000000E+00   0.00000000000000000E+00   0.00000000000000000E+00   0.00000000000000000E+00   0.00000000000000000E+00
             0.00000000000000000E+00   0.00000000000000000E+00   7.02344162999999942E+05   7.02369162999999942E+05   7.02394162999999942E+05
             7.02419162999999942E+05   7.02444162999999942E+05   7.02469162999999942E+05   7.02494162999999942E+05   7.02519162999999942E+05
             7.02544162999999942E+05   7.02569162999999942E+05   7.02594162999999942E+05   7.02619162999999942E+05   7.02644162999999942E+05
             7.02669162999999942E+05   7.02694162999999942E+05   7.02719162999999942E+05   7.02744162999999942E+05   7.02769162999999942E+05
             7.02794162999999942E+05   7.02819162999999942E+05   7.02844162999999942E+05   7.02869162999999942E+05   7.02894162999999942E+05
             7.02919162999999942E+05   7.02944162999999942E+05   7.02969162999999942E+05   7.02994162999999942E+05   7.03019162999999942E+05
             7.03044162999999942E+05   7.03069162999999942E+05   7.03094162999999942E+05   7.03119162999999942E+05   7.03144162999999942E+05
             7.03169162999999942E+05   7.03194162999999942E+05   7.03219162999999942E+05   7.03244162999999942E+05   7.03269162999999942E+05
             7.03294162999999942E+05   7.03319162999999942E+05   7.03344162999999942E+05   7.03369162999999942E+05   7.03394162999999942E+05
             7.03419162999999942E+05   7.03444162999999942E+05   7.03469162999999942E+05   7.03494162999999942E+05   7.03519162999999942E+05
             7.03544162999999942E+05   7.03569162999999942E+05   7.03594162999999942E+05   7.03619162999999942E+05   7.03644162999999942E+05
             7.03669162999999942E+05   7.03694162999999942E+05   7.03719162999999942E+05   7.03744162999999942E+05   7.03769162999999942E+05
             7.03794162999999942E+05   7.03819162999999942E+05   7.03844162999999942E+05   7.03869162999999942E+05   7.03894162999999942E+05
             7.03919162999999942E+05   7.03944162999999942E+05
 ETA=   11   0.00000000000000000E+00   0.00000000000000000E+00   0.00000000000000000E+00   0.00000000000000000E+00   0.00000000000000000E+00
             0.00000000000000000E+00   0.00000000000000000E+00   0.00000000000000000E+00   0.00000000000000000E+00   0.00000000000000000E+00
             0.00000000000000000E+00   0.00000000000000000E+00   0.00000000000000000E+00   0.00000000000000000E+00   0.00000000000000000E+00
             0.00000000000000000E+00   0.00000000000000000E+00   7.02344162999999942E+05   7.02369162999999942E+05   7.02394162999999942E+05
             7.02419162999999942E+05   7.02444162999999942E+05   7.02469162999999942E+05   7.02494162999999942E+05   7.02519162999999942E+05
             7.02544162999999942E+05   7.02569162999999942E+05   7.02594162999999942E+05   7.02619162999999942E+05   7.02644162999999942E+05
             7.02669162999999942E+05   7.02694162999999942E+05   7.02719162999999942E+05   7.02744162999999942E+05   7.02769162999999942E+05
             7.02794162999999942E+05   7.02819162999999942E+05   7.02844162999999942E+05   7.02869162999999942E+05   7.02894162999999942E+05
             7.02919162999999942E+05   7.02944162999999942E+05   7.02969162999999942E+05   7.02994162999999942E+05   7.03019162999999942E+05
             7.03044162999999942E+05   7.03069162999999942E+05   7.03094162999999942E+05   7.03119162999999942E+05   7.03144162999999942E+05
             7.03169162999999942E+05   7.03194162999999942E+05   7.03219162999999942E+05   7.03244162999999942E+05   7.03269162999999942E+05
             7.03294162999999942E+05   7.03319162999999942E+05   7.03344162999999942E+05   7.03369162999999942E+05   7.03394162999999942E+05
             7.03419162999999942E+05   7.03444162999999942E+05   7.03469162999999942E+05   7.03494162999999942E+05   7.03519162999999942E+05
             7.03544162999999942E+05   7.03569162999999942E+05   7.03594162999999942E+05   7.03619162999999942E+05   7.03644162999999942E+05
             7.03669162999999942E+05   7.03694162999999942E+05   7.03719162999999942E+05   7.03744162999999942E+05   7.03769162999999942E+05
             7.03794162999999942E+05   7.03819162999999942E+05   7.03844162999999942E+05   7.03869162999999942E+05   7.03894162999999942E+05
             7.03919162999999942E+05   7.03944162999999942E+05
 ETA=   12   0.00000000000000000E+00   0.00000000000000000E+00   0.00000000000000000E+00   0.00000000000000000E+00   0.00000000000000000E+00
             0.00000000000000000E+00   0.00000000000000000E+00   0.00000000000000000E+00   0.00000000000000000E+00   0.00000000000000000E+00
             0.00000000000000000E+00   0.00000000000000000E+00   0.00000000000000000E+00   0.00000000000000000E+00   0.00000000000000000E+00
             0.00000000000000000E+00   0.00000000000000000E+00   7.02344162999999942E+05   7.02369162999999942E+05   7.02394162999999942E+05
             7.02419162999999942E+05   7.02444162999999942E+05   7.02469162999999942E+05   7.02494162999999942E+05   7.02519162999999942E+05
             7.02544162999999942E+05   7.02569162999999942E+05   7.02594162999999942E+05   7.02619162999999942E+05   7.02644162999999942E+05
             7.02669162999999942E+05   7.02694162999999942E+05   7.02719162999999942E+05   7.02744162999999942E+05   7.02769162999999942E+05
             7.02794162999999942E+05   7.02819162999999942E+05   7.02844162999999942E+05   7.02869162999999942E+05   7.02894162999999942E+05
             7.02919162999999942E+05   7.02944162999999942E+05   7.02969162999999942E+05   7.02994162999999942E+05   7.03019162999999942E+05
             7.03044162999999942E+05   7.03069162999999942E+05   7.03094162999999942E+05   7.03119162999999942E+05   7.03144162999999942E+05
             7.03169162999999942E+05   7.03194162999999942E+05   7.03219162999999942E+05   7.03244162999999942E+05   7.03269162999999942E+05
             7.03294162999999942E+05   7.03319162999999942E+05   7.03344162999999942E+05   7.03369162999999942E+05   7.03394162999999942E+05
             7.03419162999999942E+05   7.03444162999999942E+05   7.03469162999999942E+05   7.03494162999999942E+05   7.03519162999999942E+05
             7.03544162999999942E+05   7.03569162999999942E+05   7.03594162999999942E+05   7.03619162999999942E+05   7.03644162999999942E+05
             7.03669162999999942E+05   7.03694162999999942E+05   7.03719162999999942E+05   7.03744162999999942E+05   7.03769162999999942E+05
             7.03794162999999942E+05   7.03819162999999942E+05   7.03844162999999942E+05   7.03869162999999942E+05   7.03894162999999942E+05
             7.03919162999999942E+05   7.03944162999999942E+05
 ETA=   13   0.00000000000000000E+00   0.00000000000000000E+00   0.00000000000000000E+00   0.00000000000000000E+00   0.00000000000000000E+00
             0.00000000000000000E+00   0.00000000000000000E+00   0.00000000000000000E+00   0.00000000000000000E+00   0.00000000000000000E+00
             0.00000000000000000E+00   0.00000000000000000E+00   0.00000000000000000E+00   0.00000000000000000E+00   0.00000000000000000E+00
             0.00000000000000000E+00   0.00000000000000000E+00   7.02344162999999942E+05   7.02369162999999942E+05   7.02394162999999942E+05
             7.02419162999999942E+05   7.02444162999999942E+05   7.02469162999999942E+05   7.02494162999999942E+05   7.02519162999999942E+05
             7.02544162999999942E+05   7.02569162999999942E+05   7.02594162999999942E+05   7.02619162999999942E+05   7.02644162999999942E+05
             7.02669162999999942E+05   7.02694162999999942E+05   7.02719162999999942E+05   7.02744162999999942E+05   7.02769162999999942E+05
             7.02794162999999942E+05   7.02819162999999942E+05   7.02844162999999942E+05   7.02869162999999942E+05   7.02894162999999942E+05
             7.02919162999999942E+05   7.02944162999999942E+05   7.02969162999999942E+05   7.02994162999999942E+05   7.03019162999999942E+05
             7.03044162999999942E+05   7.03069162999999942E+05   7.03094162999999942E+05   7.03119162999999942E+05   7.03144162999999942E+05
             7.03169162999999942E+05   7.03194162999999942E+05   7.03219162999999942E+05   7.03244162999999942E+05   7.03269162999999942E+05
             7.03294162999999942E+05   7.03319162999999942E+05   7.03344162999999942E+05   7.03369162999999942E+05   7.03394162999999942E+05
             7.03419162999999942E+05   7.03444162999999942E+05   7.03469162999999942E+05   7.03494162999999942E+05   7.03519162999999942E+05
             7.03544162999999942E+05   7.03569162999999942E+05   7.03594162999999942E+05   7.03619162999999942E+05   7.03644162999999942E+05
             7.03669162999999942E+05   7.03694162999999942E+05   7.03719162999999942E+05   7.03744162999999942E+05   7.03769162999999942E+05
             7.03794162999999942E+05   7.03819162999999942E+05   7.03844162999999942E+05   7.03869162999999942E+05   7.03894162999999942E+05
             7.03919162999999942E+05   7.03944162999999942E+05
 ETA=   14   0.00000000000000000E+00   0.00000000000000000E+00   0.00000000000000000E+00   0.00000000000000000E+00   0.00000000000000000E+00
             0.00000000000000000E+00   0.00000000000000000E+00   0.00000000000000000E+00   0.00000000000000000E+00   0.00000000000000000E+00
             0.00000000000000000E+00   0.00000000000000000E+00   0.00000000000000000E+00   0.00000000000000000E+00   0.00000000000000000E+00
             0.00000000000000000E+00   7.02319162999999942E+05   7.02344162999999942E+05   7.02369162999999942E+05   7.02394162999999942E+05
             7.02419162999999942E+05   7.02444162999999942E+05   7.02469162999999942E+05   7.02494162999999942E+05   7.02519162999999942E+05
             7.02544162999999942E+05   7.02569162999999942E+05   7.02594162999999942E+05   7.02619162999999942E+05   7.02644162999999942E+05
             7.02669162999999942E+05   7.02694162999999942E+05   7.02719162999999942E+05   7.02744162999999942E+05   7.02769162999999942E+05
             7.02794162999999942E+05   7.02819162999999942E+05   7.02844162999999942E+05   7.02869162999999942E+05   7.02894162999999942E+05
             7.02919162999999942E+05   7.02944162999999942E+05   7.02969162999999942E+05   7.02994162999999942E+05   7.03019162999999942E+05
             7.03044162999999942E+05   7.03069162999999942E+05   7.03094162999999942E+05   7.03119162999999942E+05   7.03144162999999942E+05
             7.03169162999999942E+05   7.03194162999999942E+05   7.03219162999999942E+05   7.03244162999999942E+05   7.03269162999999942E+05
             7.03294162999999942E+05   7.03319162999999942E+05   7.03344162999999942E+05   7.03369162999999942E+05   7.03394162999999942E+05
             7.03419162999999942E+05   7.03444162999999942E+05   7.03469162999999942E+05   7.03494162999999942E+05   7.03519162999999942E+05
             7.03544162999999942E+05   7.03569162999999942E+05   7.03594162999999942E+05   7.03619162999999942E+05   7.03644162999999942E+05
             7.03669162999999942E+05   7.03694162999999942E+05   7.03719162999999942E+05   7.03744162999999942E+05   7.03769162999999942E+05
             7.03794162999999942E+05   7.03819162999999942E+05   7.03844162999999942E+05   7.03869162999999942E+05   7.03894162999999942E+05
             7.03919162999999942E+05   7.03944162999999942E+05
 ETA=   15   0.00000000000000000E+00   0.00000000000000000E+00   0.00000000000000000E+00   0.00000000000000000E+00   0.00000000000000000E+00
             0.00000000000000000E+00   0.00000000000000000E+00   0.00000000000000000E+00   0.00000000000000000E+00   0.00000000000000000E+00
             0.00000000000000000E+00   0.00000000000000000E+00   0.00000000000000000E+00   0.00000000000000000E+00   0.00000000000000000E+00
             0.00000000000000000E+00   7.02319162999999942E+05   7.02344162999999942E+05   7.02369162999999942E+05   7.02394162999999942E+05
             7.02419162999999942E+05   7.02444162999999942E+05   7.02469162999999942E+05   7.02494162999999942E+05   7.02519162999999942E+05
             7.02544162999999942E+05   7.02569162999999942E+05   7.02594162999999942E+05   7.02619162999999942E+05   7.02644162999999942E+05
             7.02669162999999942E+05   7.02694162999999942E+05   7.02719162999999942E+05   7.02744162999999942E+05   7.02769162999999942E+05
             7.02794162999999942E+05   7.02819162999999942E+05   7.02844162999999942E+05   7.02869162999999942E+05   7.02894162999999942E+05
             7.02919162999999942E+05   7.02944162999999942E+05   7.02969162999999942E+05   7.02994162999999942E+05   7.03019162999999942E+05
             7.03044162999999942E+05   7.03069162999999942E+05   7.03094162999999942E+05   7.03119162999999942E+05   7.03144162999999942E+05
             7.03169162999999942E+05   7.03194162999999942E+05   7.03219162999999942E+05   7.03244162999999942E+05   7.03269162999999942E+05
             7.03294162999999942E+05   7.03319162999999942E+05   7.03344162999999942E+05   7.03369162999999942E+05   7.03394162999999942E+05
             7.03419162999999942E+05   7.03444162999999942E+05   7.03469162999999942E+05   7.03494162999999942E+05   7.03519162999999942E+05
             7.03544162999999942E+05   7.03569162999999942E+05   7.03594162999999942E+05   7.03619162999999942E+05   7.03644162999999942E+05
             7.03669162999999942E+05   7.03694162999999942E+05   7.03719162999999942E+05   7.03744162999999942E+05   7.03769162999999942E+05
             7.03794162999999942E+05   7.03819162999999942E+05   7.03844162999999942E+05   7.03869162999999942E+05   7.03894162999999942E+05
             7.03919162999999942E+05   7.03944162999999942E+05
 ETA=   16   0.00000000000000000E+00   0.00000000000000000E+00   0.00000000000000000E+00   0.00000000000000000E+00   0.00000000000000000E+00
             0.00000000000000000E+00   0.00000000000000000E+00   0.00000000000000000E+00   0.00000000000000000E+00   0.00000000000000000E+00
             0.00000000000000000E+00   0.00000000000000000E+00   0.00000000000000000E+00   0.00000000000000000E+00   0.00000000000000000E+00
             0.00000000000000000E+00   7.02319162999999942E+05   7.02344162999999942E+05   7.02369162999999942E+05   7.02394162999999942E+05
             7.02419162999999942E+05   7.02444162999999942E+05   7.02469162999999942E+05   7.02494162999999942E+05   7.02519162999999942E+05
             7.02544162999999942E+05   7.02569162999999942E+05   7.02594162999999942E+05   7.02619162999999942E+05   7.02644162999999942E+05
             7.02669162999999942E+05   7.02694162999999942E+05   7.02719162999999942E+05   7.02744162999999942E+05   7.02769162999999942E+05
             7.02794162999999942E+05   7.02819162999999942E+05   7.02844162999999942E+05   7.02869162999999942E+05   7.02894162999999942E+05
             7.02919162999999942E+05   7.02944162999999942E+05   7.02969162999999942E+05   7.02994162999999942E+05   7.03019162999999942E+05
             7.03044162999999942E+05   7.03069162999999942E+05   7.03094162999999942E+05   7.03119162999999942E+05   7.03144162999999942E+05
             7.03169162999999942E+05   7.03194162999999942E+05   7.03219162999999942E+05   7.03244162999999942E+05   7.03269162999999942E+05
             7.03294162999999942E+05   7.03319162999999942E+05   7.03344162999999942E+05   7.03369162999999942E+05   7.03394162999999942E+05
             7.03419162999999942E+05   7.03444162999999942E+05   7.03469162999999942E+05   7.03494162999999942E+05   7.03519162999999942E+05
             7.03544162999999942E+05   7.03569162999999942E+05   7.03594162999999942E+05   7.03619162999999942E+05   7.03644162999999942E+05
             7.03669162999999942E+05   7.03694162999999942E+05   7.03719162999999942E+05   7.03744162999999942E+05   7.03769162999999942E+05
             7.03794162999999942E+05   7.03819162999999942E+05   7.03844162999999942E+05   7.03869162999999942E+05   7.03894162999999942E+05
             7.03919162999999942E+05   7.03944162999999942E+05
 ETA=   17   0.00000000000000000E+00   0.00000000000000000E+00   0.00000000000000000E+00   0.00000000000000000E+00   0.00000000000000000E+00
             0.00000000000000000E+00   0.00000000000000000E+00   0.00000000000000000E+00   0.00000000000000000E+00   0.00000000000000000E+00
             0.00000000000000000E+00   0.00000000000000000E+00   0.00000000000000000E+00   0.00000000000000000E+00   0.00000000000000000E+00
             0.00000000000000000E+00   7.02319162999999942E+05   7.02344162999999942E+05   7.02369162999999942E+05   7.02394162999999942E+05
             7.02419162999999942E+05   7.02444162999999942E+05   7.02469162999999942E+05   7.02494162999999942E+05   7.02519162999999942E+05
             7.02544162999999942E+05   7.02569162999999942E+05   7.02594162999999942E+05   7.02619162999999942E+05   7.02644162999999942E+05
             7.02669162999999942E+05   7.02694162999999942E+05   7.02719162999999942E+05   7.02744162999999942E+05   7.02769162999999942E+05
             7.02794162999999942E+05   7.02819162999999942E+05   7.02844162999999942E+05   7.02869162999999942E+05   7.02894162999999942E+05
             7.02919162999999942E+05   7.02944162999999942E+05   7.02969162999999942E+05   7.02994162999999942E+05   7.03019162999999942E+05
             7.03044162999999942E+05   7.03069162999999942E+05   7.03094162999999942E+05   7.03119162999999942E+05   7.03144162999999942E+05
             7.03169162999999942E+05   7.03194162999999942E+05   7.03219162999999942E+05   7.03244162999999942E+05   7.03269162999999942E+05
             7.03294162999999942E+05   7.03319162999999942E+05   7.03344162999999942E+05   7.03369162999999942E+05   7.03394162999999942E+05
             7.03419162999999942E+05   7.03444162999999942E+05   7.03469162999999942E+05   7.03494162999999942E+05   7.03519162999999942E+05
             7.03544162999999942E+05   7.03569162999999942E+05   7.03594162999999942E+05   7.03619162999999942E+05   7.03644162999999942E+05
             7.03669162999999942E+05   7.03694162999999942E+05   7.03719162999999942E+05   7.03744162999999942E+05   7.03769162999999942E+05
             7.03794162999999942E+05   7.03819162999999942E+05   7.03844162999999942E+05   7.03869162999999942E+05   7.03894162999999942E+05
             7.03919162999999942E+05   7.03944162999999942E+05
 ETA=   18   0.00000000000000000E+00   0.00000000000000000E+00   0.00000000000000000E+00   0.00000000000000000E+00   0.00000000000000000E+00
             0.00000000000000000E+00   0.00000000000000000E+00   0.00000000000000000E+00   0.00000000000000000E+00   0.00000000000000000E+00
             0.00000000000000000E+00   0.00000000000000000E+00   0.00000000000000000E+00   0.00000000000000000E+00   0.00000000000000000E+00
             0.00000000000000000E+00   7.02319162999999942E+05   7.02344162999999942E+05   7.02369162999999942E+05   7.02394162999999942E+05
             7.02419162999999942E+05   7.02444162999999942E+05   7.02469162999999942E+05   7.02494162999999942E+05   7.02519162999999942E+05
             7.02544162999999942E+05   7.02569162999999942E+05   7.02594162999999942E+05   7.02619162999999942E+05   7.02644162999999942E+05
             7.02669162999999942E+05   7.02694162999999942E+05   7.02719162999999942E+05   7.02744162999999942E+05   7.02769162999999942E+05
             7.02794162999999942E+05   7.02819162999999942E+05   7.02844162999999942E+05   7.02869162999999942E+05   7.02894162999999942E+05
             7.02919162999999942E+05   7.02944162999999942E+05   7.02969162999999942E+05   7.02994162999999942E+05   7.03019162999999942E+05
             7.03044162999999942E+05   7.03069162999999942E+05   7.03094162999999942E+05   7.03119162999999942E+05   7.03144162999999942E+05
             7.03169162999999942E+05   7.03194162999999942E+05   7.03219162999999942E+05   7.03244162999999942E+05   7.03269162999999942E+05
             7.03294162999999942E+05   7.03319162999999942E+05   7.03344162999999942E+05   7.03369162999999942E+05   7.03394162999999942E+05
             7.03419162999999942E+05   7.03444162999999942E+05   7.03469162999999942E+05   7.03494162999999942E+05   7.03519162999999942E+05
             7.03544162999999942E+05   7.03569162999999942E+05   7.03594162999999942E+05   7.03619162999999942E+05   7.03644162999999942E+05
             7.03669162999999942E+05   7.03694162999999942E+05   7.03719162999999942E+05   7.03744162999999942E+05   7.03769162999999942E+05
             7.03794162999999942E+05   7.03819162999999942E+05   7.03844162999999942E+05   7.03869162999999942E+05   7.03894162999999942E+05
             7.03919162999999942E+05   7.03944162999999942E+05
 ETA=   19   0.00000000000000000E+00   0.00000000000000000E+00   0.00000000000000000E+00   0.00000000000000000E+00   0.00000000000000000E+00
             0.00000000000000000E+00   0.00000000000000000E+00   0.00000000000000000E+00   0.00000000000000000E+00   0.00000000000000000E+00
             0.00000000000000000E+00   0.00000000000000000E+00   0.00000000000000000E+00   0.00000000000000000E+00   0.00000000000000000E+00
             0.00000000000000000E+00   7.02319162999999942E+05   7.02344162999999942E+05   7.02369162999999942E+05   7.02394162999999942E+05
             7.02419162999999942E+05   7.02444162999999942E+05   7.02469162999999942E+05   7.02494162999999942E+05   7.02519162999999942E+05
             7.02544162999999942E+05   7.02569162999999942E+05   7.02594162999999942E+05   7.02619162999999942E+05   7.02644162999999942E+05
             7.02669162999999942E+05   7.02694162999999942E+05   7.02719162999999942E+05   7.02744162999999942E+05   7.02769162999999942E+05
             7.02794162999999942E+05   7.02819162999999942E+05   7.02844162999999942E+05   7.02869162999999942E+05   7.02894162999999942E+05
             7.02919162999999942E+05   7.02944162999999942E+05   7.02969162999999942E+05   7.02994162999999942E+05   7.03019162999999942E+05
             7.03044162999999942E+05   7.03069162999999942E+05   7.03094162999999942E+05   7.03119162999999942E+05   7.03144162999999942E+05
             7.03169162999999942E+05   7.03194162999999942E+05   7.03219162999999942E+05   7.03244162999999942E+05   7.03269162999999942E+05
             7.03294162999999942E+05   7.03319162999999942E+05   7.03344162999999942E+05   7.03369162999999942E+05   7.03394162999999942E+05
             7.03419162999999942E+05   7.03444162999999942E+05   7.03469162999999942E+05   7.03494162999999942E+05   7.03519162999999942E+05
             7.03544162999999942E+05   7.03569162999999942E+05   7.03594162999999942E+05   7.03619162999999942E+05   7.03644162999999942E+05
             7.03669162999999942E+05   7.03694162999999942E+05   7.03719162999999942E+05   7.03744162999999942E+05   7.03769162999999942E+05
             7.03794162999999942E+05   7.03819162999999942E+05   7.03844162999999942E+05   7.03869162999999942E+05   7.03894162999999942E+05
             7.03919162999999942E+05   7.03944162999999942E+05
 ETA=   20   0.00000000000000000E+00   0.00000000000000000E+00   0.00000000000000000E+00   0.00000000000000000E+00   0.00000000000000000E+00
             0.00000000000000000E+00   0.00000000000000000E+00   0.00000000000000000E+00   0.00000000000000000E+00   0.00000000000000000E+00
             0.00000000000000000E+00   0.00000000000000000E+00   0.00000000000000000E+00   0.00000000000000000E+00   0.00000000000000000E+00
             0.00000000000000000E+00   7.02319162999999942E+05   7.02344162999999942E+05   7.02369162999999942E+05   7.02394162999999942E+05
             7.02419162999999942E+05   7.02444162999999942E+05   7.02469162999999942E+05   7.02494162999999942E+05   7.02519162999999942E+05
             7.02544162999999942E+05   7.02569162999999942E+05   7.02594162999999942E+05   7.02619162999999942E+05   7.02644162999999942E+05
             7.02669162999999942E+05   7.02694162999999942E+05   7.02719162999999942E+05   7.02744162999999942E+05   7.02769162999999942E+05
             7.02794162999999942E+05   7.02819162999999942E+05   7.02844162999999942E+05   7.02869162999999942E+05   7.02894162999999942E+05
             7.02919162999999942E+05   7.02944162999999942E+05   7.02969162999999942E+05   7.02994162999999942E+05   7.03019162999999942E+05
             7.03044162999999942E+05   7.03069162999999942E+05   7.03094162999999942E+05   7.03119162999999942E+05   7.03144162999999942E+05
             7.03169162999999942E+05   7.03194162999999942E+05   7.03219162999999942E+05   7.03244162999999942E+05   7.03269162999999942E+05
             7.03294162999999942E+05   7.03319162999999942E+05   7.03344162999999942E+05   7.03369162999999942E+05   7.03394162999999942E+05
             7.03419162999999942E+05   7.03444162999999942E+05   7.03469162999999942E+05   7.03494162999999942E+05   7.03519162999999942E+05
             7.03544162999999942E+05   7.03569162999999942E+05   7.03594162999999942E+05   7.03619162999999942E+05   7.03644162999999942E+05
             7.03669162999999942E+05   7.03694162999999942E+05   7.03719162999999942E+05   7.03744162999999942E+05   7.03769162999999942E+05
             7.03794162999999942E+05   7.03819162999999942E+05   7.03844162999999942E+05   7.03869162999999942E+05   7.03894162999999942E+05
             7.03919162999999942E+05   7.03944162999999942E+05
 ETA=   21   0.00000000000000000E+00   0.00000000000000000E+00   0.00000000000000000E+00   0.00000000000000000E+00   0.00000000000000000E+00
             0.00000000000000000E+00   0.00000000000000000E+00   0.00000000000000000E+00   0.00000000000000000E+00   0.00000000000000000E+00
             0.00000000000000000E+00   0.00000000000000000E+00   0.00000000000000000E+00   0.00000000000000000E+00   0.00000000000000000E+00
             7.02294162999999942E+05   7.02319162999999942E+05   7.02344162999999942E+05   7.02369162999999942E+05   7.02394162999999942E+05
             7.02419162999999942E+05   7.02444162999999942E+05   7.02469162999999942E+05   7.02494162999999942E+05   7.02519162999999942E+05
             7.02544162999999942E+05   7.02569162999999942E+05   7.02594162999999942E+05   7.02619162999999942E+05   7.02644162999999942E+05
             7.02669162999999942E+05   7.02694162999999942E+05   7.02719162999999942E+05   7.02744162999999942E+05   7.02769162999999942E+05
             7.02794162999999942E+05   7.02819162999999942E+05   7.02844162999999942E+05   7.02869162999999942E+05   7.02894162999999942E+05
             7.02919162999999942E+05   7.02944162999999942E+05   7.02969162999999942E+05   7.02994162999999942E+05   7.03019162999999942E+05
             7.03044162999999942E+05   7.03069162999999942E+05   7.03094162999999942E+05   7.03119162999999942E+05   7.03144162999999942E+05
             7.03169162999999942E+05   7.03194162999999942E+05   7.03219162999999942E+05   7.03244162999999942E+05   7.03269162999999942E+05
             7.03294162999999942E+05   7.03319162999999942E+05   7.03344162999999942E+05   7.03369162999999942E+05   7.03394162999999942E+05
             7.03419162999999942E+05   7.03444162999999942E+05   7.03469162999999942E+05   7.03494162999999942E+05   7.03519162999999942E+05
             7.03544162999999942E+05   7.03569162999999942E+05   7.03594162999999942E+05   7.03619162999999942E+05   7.03644162999999942E+05
             7.03669162999999942E+05   7.03694162999999942E+05   7.03719162999999942E+05   7.03744162999999942E+05   7.03769162999999942E+05
             7.03794162999999942E+05   7.03819162999999942E+05   7.03844162999999942E+05   7.03869162999999942E+05   7.03894162999999942E+05
             7.03919162999999942E+05   7.03944162999999942E+05
 ETA=   22   0.00000000000000000E+00   0.00000000000000000E+00   0.00000000000000000E+00   0.00000000000000000E+00   0.00000000000000000E+00
             0.00000000000000000E+00   0.00000000000000000E+00   0.00000000000000000E+00   0.00000000000000000E+00   0.00000000000000000E+00
             0.00000000000000000E+00   0.00000000000000000E+00   0.00000000000000000E+00   0.00000000000000000E+00   7.02269162999999942E+05
             7.02294162999999942E+05   7.02319162999999942E+05   7.02344162999999942E+05   7.02369162999999942E+05   7.02394162999999942E+05
             7.02419162999999942E+05   7.02444162999999942E+05   7.02469162999999942E+05   7.02494162999999942E+05   7.02519162999999942E+05
             7.02544162999999942E+05   7.02569162999999942E+05   7.02594162999999942E+05   7.02619162999999942E+05   7.02644162999999942E+05
             7.02669162999999942E+05   7.02694162999999942E+05   7.02719162999999942E+05   7.02744162999999942E+05   7.02769162999999942E+05
             7.02794162999999942E+05   7.02819162999999942E+05   7.02844162999999942E+05   7.02869162999999942E+05   7.02894162999999942E+05
             7.02919162999999942E+05   7.02944162999999942E+05   7.02969162999999942E+05   7.02994162999999942E+05   7.03019162999999942E+05
             7.03044162999999942E+05   7.03069162999999942E+05   7.03094162999999942E+05   7.03119162999999942E+05   7.03144162999999942E+05
             7.03169162999999942E+05   7.03194162999999942E+05   7.03219162999999942E+05   7.03244162999999942E+05   7.03269162999999942E+05
             7.03294162999999942E+05   7.03319162999999942E+05   7.03344162999999942E+05   7.03369162999999942E+05   7.03394162999999942E+05
             7.03419162999999942E+05   7.03444162999999942E+05   7.03469162999999942E+05   7.03494162999999942E+05   7.03519162999999942E+05
             7.03544162999999942E+05   7.03569162999999942E+05   7.03594162999999942E+05   7.03619162999999942E+05   7.03644162999999942E+05
             7.03669162999999942E+05   7.03694162999999942E+05   7.03719162999999942E+05   7.03744162999999942E+05   7.03769162999999942E+05
             7.03794162999999942E+05   7.03819162999999942E+05   7.03844162999999942E+05   7.03869162999999942E+05   7.03894162999999942E+05
             7.03919162999999942E+05   7.03944162999999942E+05
 ETA=   23   0.00000000000000000E+00   0.00000000000000000E+00   0.00000000000000000E+00   0.00000000000000000E+00   0.00000000000000000E+00
             0.00000000000000000E+00   0.00000000000000000E+00   0.00000000000000000E+00   0.00000000000000000E+00   0.00000000000000000E+00
             0.00000000000000000E+00   0.00000000000000000E+00   0.00000000000000000E+00   7.02244162999999942E+05   7.02269162999999942E+05
             7.02294162999999942E+05   7.02319162999999942E+05   7.02344162999999942E+05   7.02369162999999942E+05   7.02394162999999942E+05
             7.02419162999999942E+05   7.02444162999999942E+05   7.02469162999999942E+05   7.02494162999999942E+05   7.02519162999999942E+05
             7.02544162999999942E+05   7.02569162999999942E+05   7.02594162999999942E+05   7.02619162999999942E+05   7.02644162999999942E+05
             7.02669162999999942E+05   7.02694162999999942E+05   7.02719162999999942E+05   7.02744162999999942E+05   7.02769162999999942E+05
             7.02794162999999942E+05   7.02819162999999942E+05   7.02844162999999942E+05   7.02869162999999942E+05   7.02894162999999942E+05
             7.02919162999999942E+05   7.02944162999999942E+05   7.02969162999999942E+05   7.02994162999999942E+05   7.03019162999999942E+05
             7.03044162999999942E+05   7.03069162999999942E+05   7.03094162999999942E+05   7.03119162999999942E+05   7.03144162999999942E+05
             7.03169162999999942E+05   7.03194162999999942E+05   7.03219162999999942E+05   7.03244162999999942E+05   7.03269162999999942E+05
             7.03294162999999942E+05   7.03319162999999942E+05   7.03344162999999942E+05   7.03369162999999942E+05   7.03394162999999942E+05
             7.03419162999999942E+05   7.03444162999999942E+05   7.03469162999999942E+05   7.03494162999999942E+05   7.03519162999999942E+05
             7.03544162999999942E+05   7.03569162999999942E+05   7.03594162999999942E+05   7.03619162999999942E+05   7.03644162999999942E+05
             7.03669162999999942E+05   7.03694162999999942E+05   7.03719162999999942E+05   7.03744162999999942E+05   7.03769162999999942E+05
             7.03794162999999942E+05   7.03819162999999942E+05   7.03844162999999942E+05   7.03869162999999942E+05   7.03894162999999942E+05
             7.03919162999999942E+05   7.03944162999999942E+05
 ETA=   24   0.00000000000000000E+00   0.00000000000000000E+00   0.00000000000000000E+00   0.00000000000000000E+00   0.00000000000000000E+00
             0.00000000000000000E+00   0.00000000000000000E+00   7.02094162999999942E+05   7.02119162999999942E+05   7.02144162999999942E+05
             7.02169162999999942E+05   7.02194162999999942E+05   7.02219162999999942E+05   7.02244162999999942E+05   7.02269162999999942E+05
             7.02294162999999942E+05   7.02319162999999942E+05   7.02344162999999942E+05   7.02369162999999942E+05   7.02394162999999942E+05
             7.02419162999999942E+05   7.02444162999999942E+05   7.02469162999999942E+05   7.02494162999999942E+05   7.02519162999999942E+05
             7.02544162999999942E+05   7.02569162999999942E+05   7.02594162999999942E+05   7.02619162999999942E+05   7.02644162999999942E+05
             7.02669162999999942E+05   7.02694162999999942E+05   7.02719162999999942E+05   7.02744162999999942E+05   7.02769162999999942E+05
             7.02794162999999942E+05   7.02819162999999942E+05   7.02844162999999942E+05   7.02869162999999942E+05   7.02894162999999942E+05
             7.02919162999999942E+05   7.02944162999999942E+05   7.02969162999999942E+05   7.02994162999999942E+05   7.03019162999999942E+05
             7.03044162999999942E+05   7.03069162999999942E+05   7.03094162999999942E+05   7.03119162999999942E+05   7.03144162999999942E+05
             7.03169162999999942E+05   7.03194162999999942E+05   7.03219162999999942E+05   7.03244162999999942E+05   7.03269162999999942E+05
             7.03294162999999942E+05   7.03319162999999942E+05   7.03344162999999942E+05   7.03369162999999942E+05   7.03394162999999942E+05
             7.03419162999999942E+05   7.03444162999999942E+05   7.03469162999999942E+05   7.03494162999999942E+05   7.03519162999999942E+05
             7.03544162999999942E+05   7.03569162999999942E+05   7.03594162999999942E+05   7.03619162999999942E+05   7.03644162999999942E+05
             7.03669162999999942E+05   7.03694162999999942E+05   7.03719162999999942E+05   7.03744162999999942E+05   7.03769162999999942E+05
             7.03794162999999942E+05   7.03819162999999942E+05   7.03844162999999942E+05   7.03869162999999942E+05   7.03894162999999942E+05
             7.03919162999999942E+05   7.03944162999999942E+05
 ETA=   25   0.00000000000000000E+00   7.01944162999999942E+05   7.01969162999999942E+05   7.01994162999999942E+05   7.02019162999999942E+05
             7.02044162999999942E+05   7.02069162999999942E+05   7.02094162999999942E+05   7.02119162999999942E+05   7.02144162999999942E+05
             7.02169162999999942E+05   7.02194162999999942E+05   7.02219162999999942E+05   7.02244162999999942E+05   7.02269162999999942E+05
             7.02294162999999942E+05   7.02319162999999942E+05   7.02344162999999942E+05   7.02369162999999942E+05   7.02394162999999942E+05
             7.02419162999999942E+05   7.02444162999999942E+05   7.02469162999999942E+05   7.02494162999999942E+05   7.02519162999999942E+05
             7.02544162999999942E+05   7.02569162999999942E+05   7.02594162999999942E+05   7.02619162999999942E+05   7.02644162999999942E+05
             7.02669162999999942E+05   7.02694162999999942E+05   7.02719162999999942E+05   7.02744162999999942E+05   7.02769162999999942E+05
             7.02794162999999942E+05   7.02819162999999942E+05   7.02844162999999942E+05   7.02869162999999942E+05   7.02894162999999942E+05
             7.02919162999999942E+05   7.02944162999999942E+05   7.02969162999999942E+05   7.02994162999999942E+05   7.03019162999999942E+05
             7.03044162999999942E+05   7.03069162999999942E+05   7.03094162999999942E+05   7.03119162999999942E+05   7.03144162999999942E+05
             7.03169162999999942E+05   7.03194162999999942E+05   7.03219162999999942E+05   7.03244162999999942E+05   7.03269162999999942E+05
             7.03294162999999942E+05   7.03319162999999942E+05   7.03344162999999942E+05   7.03369162999999942E+05   7.03394162999999942E+05
             7.03419162999999942E+05   7.03444162999999942E+05   7.03469162999999942E+05   7.03494162999999942E+05   7.03519162999999942E+05
             7.03544162999999942E+05   7.03569162999999942E+05   7.03594162999999942E+05   7.03619162999999942E+05   7.03644162999999942E+05
             7.03669162999999942E+05   7.03694162999999942E+05   7.03719162999999942E+05   7.03744162999999942E+05   7.03769162999999942E+05
             7.03794162999999942E+05   7.03819162999999942E+05   7.03844162999999942E+05   7.03869162999999942E+05   7.03894162999999942E+05
             7.03919162999999942E+05   7.03944162999999942E+05
 ETA=   26   7.01919162999999942E+05   7.01944162999999942E+05   7.01969162999999942E+05   7.01994162999999942E+05   7.02019162999999942E+05
             7.02044162999999942E+05   7.02069162999999942E+05   7.02094162999999942E+05   7.02119162999999942E+05   7.02144162999999942E+05
             7.02169162999999942E+05   7.02194162999999942E+05   7.02219162999999942E+05   7.02244162999999942E+05   7.02269162999999942E+05
             7.02294162999999942E+05   7.02319162999999942E+05   7.02344162999999942E+05   7.02369162999999942E+05   7.02394162999999942E+05
             7.02419162999999942E+05   7.02444162999999942E+05   7.02469162999999942E+05   7.02494162999999942E+05   7.02519162999999942E+05
             7.02544162999999942E+05   7.02569162999999942E+05   7.02594162999999942E+05   7.02619162999999942E+05   7.02644162999999942E+05
             7.02669162999999942E+05   7.02694162999999942E+05   7.02719162999999942E+05   7.02744162999999942E+05   7.02769162999999942E+05
             7.02794162999999942E+05   7.02819162999999942E+05   7.02844162999999942E+05   7.02869162999999942E+05   7.02894162999999942E+05
             7.02919162999999942E+05   7.02944162999999942E+05   7.02969162999999942E+05   7.02994162999999942E+05   7.03019162999999942E+05
             7.03044162999999942E+05   7.03069162999999942E+05   7.03094162999999942E+05   7.03119162999999942E+05   7.03144162999999942E+05
             7.03169162999999942E+05   7.03194162999999942E+05   7.03219162999999942E+05   7.03244162999999942E+05   7.03269162999999942E+05
             7.03294162999999942E+05   7.03319162999999942E+05   7.03344162999999942E+05   7.03369162999999942E+05   7.03394162999999942E+05
             7.03419162999999942E+05   7.03444162999999942E+05   7.03469162999999942E+05   7.03494162999999942E+05   7.03519162999999942E+05
             7.03544162999999942E+05   7.03569162999999942E+05   7.03594162999999942E+05   7.03619162999999942E+05   7.03644162999999942E+05
             7.03669162999999942E+05   7.03694162999999942E+05   7.03719162999999942E+05   7.03744162999999942E+05   7.03769162999999942E+05
             7.03794162999999942E+05   7.03819162999999942E+05   7.03844162999999942E+05   7.03869162999999942E+05   7.03894162999999942E+05
             7.03919162999999942E+05   7.03944162999999942E+05
 ETA=   27   7.01919162999999942E+05   7.01944162999999942E+05   7.01969162999999942E+05   7.01994162999999942E+05   7.02019162999999942E+05
             7.02044162999999942E+05   7.02069162999999942E+05   7.02094162999999942E+05   7.02119162999999942E+05   7.02144162999999942E+05
             7.02169162999999942E+05   7.02194162999999942E+05   7.02219162999999942E+05   7.02244162999999942E+05   7.02269162999999942E+05
             7.02294162999999942E+05   7.02319162999999942E+05   7.02344162999999942E+05   7.02369162999999942E+05   7.02394162999999942E+05
             7.02419162999999942E+05   7.02444162999999942E+05   7.02469162999999942E+05   7.02494162999999942E+05   7.02519162999999942E+05
             7.02544162999999942E+05   7.02569162999999942E+05   7.02594162999999942E+05   7.02619162999999942E+05   7.02644162999999942E+05
             7.02669162999999942E+05   7.02694162999999942E+05   7.02719162999999942E+05   7.02744162999999942E+05   7.02769162999999942E+05
             7.02794162999999942E+05   7.02819162999999942E+05   7.02844162999999942E+05   7.02869162999999942E+05   7.02894162999999942E+05
             7.02919162999999942E+05   7.02944162999999942E+05   7.02969162999999942E+05   7.02994162999999942E+05   7.03019162999999942E+05
             7.03044162999999942E+05   7.03069162999999942E+05   7.03094162999999942E+05   7.03119162999999942E+05   7.03144162999999942E+05
             7.03169162999999942E+05   7.03194162999999942E+05   7.03219162999999942E+05   7.03244162999999942E+05   7.03269162999999942E+05
             7.03294162999999942E+05   7.03319162999999942E+05   7.03344162999999942E+05   7.03369162999999942E+05   7.03394162999999942E+05
             7.03419162999999942E+05   7.03444162999999942E+05   7.03469162999999942E+05   7.03494162999999942E+05   7.03519162999999942E+05
             7.03544162999999942E+05   7.03569162999999942E+05   7.03594162999999942E+05   7.03619162999999942E+05   7.03644162999999942E+05
             7.03669162999999942E+05   7.03694162999999942E+05   7.03719162999999942E+05   7.03744162999999942E+05   7.03769162999999942E+05
             7.03794162999999942E+05   7.03819162999999942E+05   7.03844162999999942E+05   7.03869162999999942E+05   7.03894162999999942E+05
             7.03919162999999942E+05   7.03944162999999942E+05
 ETA=   28   7.01919162999999942E+05   7.01944162999999942E+05   7.01969162999999942E+05   7.01994162999999942E+05   7.02019162999999942E+05
             7.02044162999999942E+05   7.02069162999999942E+05   7.02094162999999942E+05   7.02119162999999942E+05   7.02144162999999942E+05
             7.02169162999999942E+05   7.02194162999999942E+05   7.02219162999999942E+05   7.02244162999999942E+05   7.02269162999999942E+05
             7.02294162999999942E+05   7.02319162999999942E+05   7.02344162999999942E+05   7.02369162999999942E+05   7.02394162999999942E+05
             7.02419162999999942E+05   7.02444162999999942E+05   7.02469162999999942E+05   7.02494162999999942E+05   7.02519162999999942E+05
             7.02544162999999942E+05   7.02569162999999942E+05   7.02594162999999942E+05   7.02619162999999942E+05   7.02644162999999942E+05
             7.02669162999999942E+05   7.02694162999999942E+05   7.02719162999999942E+05   7.02744162999999942E+05   7.02769162999999942E+05
             7.02794162999999942E+05   7.02819162999999942E+05   7.02844162999999942E+05   7.02869162999999942E+05   7.02894162999999942E+05
             7.02919162999999942E+05   7.02944162999999942E+05   7.02969162999999942E+05   7.02994162999999942E+05   7.03019162999999942E+05
             7.03044162999999942E+05   7.03069162999999942E+05   7.03094162999999942E+05   7.03119162999999942E+05   7.03144162999999942E+05
             7.03169162999999942E+05   7.03194162999999942E+05   7.03219162999999942E+05   7.03244162999999942E+05   7.03269162999999942E+05
             7.03294162999999942E+05   7.03319162999999942E+05   7.03344162999999942E+05   7.03369162999999942E+05   7.03394162999999942E+05
             7.03419162999999942E+05   7.03444162999999942E+05   7.03469162999999942E+05   7.03494162999999942E+05   7.03519162999999942E+05
             7.03544162999999942E+05   7.03569162999999942E+05   7.03594162999999942E+05   7.03619162999999942E+05   7.03644162999999942E+05
             7.03669162999999942E+05   7.03694162999999942E+05   7.03719162999999942E+05   7.03744162999999942E+05   7.03769162999999942E+05
             7.03794162999999942E+05   7.03819162999999942E+05   7.03844162999999942E+05   7.03869162999999942E+05   7.03894162999999942E+05
             7.03919162999999942E+05   7.03944162999999942E+05
 ETA=   29   7.01919162999999942E+05   7.01944162999999942E+05   7.01969162999999942E+05   7.01994162999999942E+05   7.02019162999999942E+05
             7.02044162999999942E+05   7.02069162999999942E+05   7.02094162999999942E+05   7.02119162999999942E+05   7.02144162999999942E+05
             7.02169162999999942E+05   7.02194162999999942E+05   7.02219162999999942E+05   7.02244162999999942E+05   7.02269162999999942E+05
             7.02294162999999942E+05   7.02319162999999942E+05   7.02344162999999942E+05   7.02369162999999942E+05   7.02394162999999942E+05
             7.02419162999999942E+05   7.02444162999999942E+05   7.02469162999999942E+05   7.02494162999999942E+05   7.02519162999999942E+05
             7.02544162999999942E+05   7.02569162999999942E+05   7.02594162999999942E+05   7.02619162999999942E+05   7.02644162999999942E+05
             7.02669162999999942E+05   7.02694162999999942E+05   7.02719162999999942E+05   7.02744162999999942E+05   7.02769162999999942E+05
             7.02794162999999942E+05   7.02819162999999942E+05   7.02844162999999942E+05   7.02869162999999942E+05   7.02894162999999942E+05
             7.02919162999999942E+05   7.02944162999999942E+05   7.02969162999999942E+05   7.02994162999999942E+05   7.03019162999999942E+05
             7.03044162999999942E+05   7.03069162999999942E+05   7.03094162999999942E+05   7.03119162999999942E+05   7.03144162999999942E+05
             7.03169162999999942E+05   7.03194162999999942E+05   7.03219162999999942E+05   7.03244162999999942E+05   7.03269162999999942E+05
             7.03294162999999942E+05   7.03319162999999942E+05   7.03344162999999942E+05   7.03369162999999942E+05   7.03394162999999942E+05
             7.03419162999999942E+05   7.03444162999999942E+05   7.03469162999999942E+05   7.03494162999999942E+05   7.03519162999999942E+05
             7.03544162999999942E+05   7.03569162999999942E+05   7.03594162999999942E+05   7.03619162999999942E+05   7.03644162999999942E+05
             7.03669162999999942E+05   7.03694162999999942E+05   7.03719162999999942E+05   7.03744162999999942E+05   7.03769162999999942E+05
             7.03794162999999942E+05   7.03819162999999942E+05   7.03844162999999942E+05   7.03869162999999942E+05   7.03894162999999942E+05
             7.03919162999999942E+05   7.03944162999999942E+05
 ETA=   30   7.01919162999999942E+05   7.01944162999999942E+05   7.01969162999999942E+05   7.01994162999999942E+05   7.02019162999999942E+05
             7.02044162999999942E+05   7.02069162999999942E+05   7.02094162999999942E+05   7.02119162999999942E+05   7.02144162999999942E+05
             7.02169162999999942E+05   7.02194162999999942E+05   7.02219162999999942E+05   7.02244162999999942E+05   7.02269162999999942E+05
             7.02294162999999942E+05   7.02319162999999942E+05   7.02344162999999942E+05   7.02369162999999942E+05   7.02394162999999942E+05
             7.02419162999999942E+05   7.02444162999999942E+05   7.02469162999999942E+05   7.02494162999999942E+05   7.02519162999999942E+05
             7.02544162999999942E+05   7.02569162999999942E+05   7.02594162999999942E+05   7.02619162999999942E+05   7.02644162999999942E+05
             7.02669162999999942E+05   7.02694162999999942E+05   7.02719162999999942E+05   7.02744162999999942E+05   7.02769162999999942E+05
             7.02794162999999942E+05   7.02819162999999942E+05   7.02844162999999942E+05   7.02869162999999942E+05   7.02894162999999942E+05
             7.02919162999999942E+05   7.02944162999999942E+05   7.02969162999999942E+05   7.02994162999999942E+05   7.03019162999999942E+05
             7.03044162999999942E+05   7.03069162999999942E+05   7.03094162999999942E+05   7.03119162999999942E+05   7.03144162999999942E+05
             7.03169162999999942E+05   7.03194162999999942E+05   7.03219162999999942E+05   7.03244162999999942E+05   7.03269162999999942E+05
             7.03294162999999942E+05   7.03319162999999942E+05   7.03344162999999942E+05   7.03369162999999942E+05   7.03394162999999942E+05
             7.03419162999999942E+05   7.03444162999999942E+05   7.03469162999999942E+05   7.03494162999999942E+05   7.03519162999999942E+05
             7.03544162999999942E+05   7.03569162999999942E+05   7.03594162999999942E+05   7.03619162999999942E+05   7.03644162999999942E+05
             7.03669162999999942E+05   7.03694162999999942E+05   7.03719162999999942E+05   7.03744162999999942E+05   7.03769162999999942E+05
             7.03794162999999942E+05   7.03819162999999942E+05   7.03844162999999942E+05   7.03869162999999942E+05   7.03894162999999942E+05
             7.03919162999999942E+05   7.03944162999999942E+05
 ETA=   31   7.01919162999999942E+05   7.01944162999999942E+05   7.01969162999999942E+05   7.01994162999999942E+05   7.02019162999999942E+05
             7.02044162999999942E+05   7.02069162999999942E+05   7.02094162999999942E+05   7.02119162999999942E+05   7.02144162999999942E+05
             7.02169162999999942E+05   7.02194162999999942E+05   7.02219162999999942E+05   7.02244162999999942E+05   7.02269162999999942E+05
             7.02294162999999942E+05   7.02319162999999942E+05   7.02344162999999942E+05   7.02369162999999942E+05   7.02394162999999942E+05
             7.02419162999999942E+05   7.02444162999999942E+05   7.02469162999999942E+05   7.02494162999999942E+05   7.02519162999999942E+05
             7.02544162999999942E+05   7.02569162999999942E+05   7.02594162999999942E+05   7.02619162999999942E+05   7.02644162999999942E+05
             7.02669162999999942E+05   7.02694162999999942E+05   7.02719162999999942E+05   7.02744162999999942E+05   7.02769162999999942E+05
             7.02794162999999942E+05   7.02819162999999942E+05   7.02844162999999942E+05   7.02869162999999942E+05   7.02894162999999942E+05
             7.02919162999999942E+05   7.02944162999999942E+05   7.02969162999999942E+05   7.02994162999999942E+05   7.03019162999999942E+05
             7.03044162999999942E+05   7.03069162999999942E+05   7.03094162999999942E+05   7.03119162999999942E+05   7.03144162999999942E+05
             7.03169162999999942E+05   7.03194162999999942E+05   7.03219162999999942E+05   7.03244162999999942E+05   7.03269162999999942E+05
             7.03294162999999942E+05   7.03319162999999942E+05   7.03344162999999942E+05   7.03369162999999942E+05   7.03394162999999942E+05
             7.03419162999999942E+05   7.03444162999999942E+05   7.03469162999999942E+05   7.03494162999999942E+05   7.03519162999999942E+05
             7.03544162999999942E+05   7.03569162999999942E+05   7.03594162999999942E+05   7.03619162999999942E+05   7.03644162999999942E+05
             7.03669162999999942E+05   7.03694162999999942E+05   7.03719162999999942E+05   7.03744162999999942E+05   7.03769162999999942E+05
             7.03794162999999942E+05   7.03819162999999942E+05   7.03844162999999942E+05   7.03869162999999942E+05   7.03894162999999942E+05
             7.03919162999999942E+05   7.03944162999999942E+05
 ETA=   32   7.01919162999999942E+05   7.01944162999999942E+05   7.01969162999999942E+05   7.01994162999999942E+05   7.02019162999999942E+05
             7.02044162999999942E+05   7.02069162999999942E+05   7.02094162999999942E+05   7.02119162999999942E+05   7.02144162999999942E+05
             7.02169162999999942E+05   7.02194162999999942E+05   7.02219162999999942E+05   7.02244162999999942E+05   7.02269162999999942E+05
             7.02294162999999942E+05   7.02319162999999942E+05   7.02344162999999942E+05   7.02369162999999942E+05   7.02394162999999942E+05
             7.02419162999999942E+05   7.02444162999999942E+05   7.02469162999999942E+05   7.02494162999999942E+05   7.02519162999999942E+05
             7.02544162999999942E+05   7.02569162999999942E+05   7.02594162999999942E+05   7.02619162999999942E+05   7.02644162999999942E+05
             7.02669162999999942E+05   7.02694162999999942E+05   7.02719162999999942E+05   7.02744162999999942E+05   7.02769162999999942E+05
             7.02794162999999942E+05   7.02819162999999942E+05   7.02844162999999942E+05   7.02869162999999942E+05   7.02894162999999942E+05
             7.02919162999999942E+05   7.02944162999999942E+05   7.02969162999999942E+05   7.02994162999999942E+05   7.03019162999999942E+05
             7.03044162999999942E+05   7.03069162999999942E+05   7.03094162999999942E+05   7.03119162999999942E+05   7.03144162999999942E+05
             7.03169162999999942E+05   7.03194162999999942E+05   7.03219162999999942E+05   7.03244162999999942E+05   7.03269162999999942E+05
             7.03294162999999942E+05   7.03319162999999942E+05   7.03344162999999942E+05   7.03369162999999942E+05   7.03394162999999942E+05
             7.03419162999999942E+05   7.03444162999999942E+05   7.03469162999999942E+05   7.03494162999999942E+05   7.03519162999999942E+05
             7.03544162999999942E+05   7.03569162999999942E+05   7.03594162999999942E+05   7.03619162999999942E+05   7.03644162999999942E+05
             7.03669162999999942E+05   7.03694162999999942E+05   7.03719162999999942E+05   7.03744162999999942E+05   7.03769162999999942E+05
             7.03794162999999942E+05   7.03819162999999942E+05   7.03844162999999942E+05   7.03869162999999942E+05   7.03894162999999942E+05
             7.03919162999999942E+05   7.03944162999999942E+05
 ETA=   33   7.01919162999999942E+05   7.01944162999999942E+05   7.01969162999999942E+05   7.01994162999999942E+05   7.02019162999999942E+05
             7.02044162999999942E+05   7.02069162999999942E+05   7.02094162999999942E+05   7.02119162999999942E+05   7.02144162999999942E+05
             7.02169162999999942E+05   7.02194162999999942E+05   7.02219162999999942E+05   7.02244162999999942E+05   7.02269162999999942E+05
             7.02294162999999942E+05   7.02319162999999942E+05   7.02344162999999942E+05   7.02369162999999942E+05   7.02394162999999942E+05
             7.02419162999999942E+05   7.02444162999999942E+05   7.02469162999999942E+05   7.02494162999999942E+05   7.02519162999999942E+05
             7.02544162999999942E+05   7.02569162999999942E+05   7.02594162999999942E+05   7.02619162999999942E+05   7.02644162999999942E+05
             7.02669162999999942E+05   7.02694162999999942E+05   7.02719162999999942E+05   7.02744162999999942E+05   7.02769162999999942E+05
             7.02794162999999942E+05   7.02819162999999942E+05   7.02844162999999942E+05   7.02869162999999942E+05   7.02894162999999942E+05
             7.02919162999999942E+05   7.02944162999999942E+05   7.02969162999999942E+05   7.02994162999999942E+05   7.03019162999999942E+05
             7.03044162999999942E+05   7.03069162999999942E+05   7.03094162999999942E+05   7.03119162999999942E+05   7.03144162999999942E+05
             7.03169162999999942E+05   7.03194162999999942E+05   7.03219162999999942E+05   7.03244162999999942E+05   7.03269162999999942E+05
             7.03294162999999942E+05   7.03319162999999942E+05   7.03344162999999942E+05   7.03369162999999942E+05   7.03394162999999942E+05
             7.03419162999999942E+05   7.03444162999999942E+05   7.03469162999999942E+05   7.03494162999999942E+05   7.03519162999999942E+05
             7.03544162999999942E+05   7.03569162999999942E+05   7.03594162999999942E+05   7.03619162999999942E+05   7.03644162999999942E+05
             7.03669162999999942E+05   7.03694162999999942E+05   7.03719162999999942E+05   7.03744162999999942E+05   7.03769162999999942E+05
             7.03794162999999942E+05   7.03819162999999942E+05   7.03844162999999942E+05   7.03869162999999942E+05   7.03894162999999942E+05
             7.03919162999999942E+05   7.03944162999999942E+05
 ETA=   34   7.01919162999999942E+05   7.01944162999999942E+05   7.01969162999999942E+05   7.01994162999999942E+05   7.02019162999999942E+05
             7.02044162999999942E+05   7.02069162999999942E+05   7.02094162999999942E+05   7.02119162999999942E+05   7.02144162999999942E+05
             7.02169162999999942E+05   7.02194162999999942E+05   7.02219162999999942E+05   7.02244162999999942E+05   7.02269162999999942E+05
             7.02294162999999942E+05   7.02319162999999942E+05   7.02344162999999942E+05   7.02369162999999942E+05   7.02394162999999942E+05
             7.02419162999999942E+05   7.02444162999999942E+05   7.02469162999999942E+05   7.02494162999999942E+05   7.02519162999999942E+05
             7.02544162999999942E+05   7.02569162999999942E+05   7.02594162999999942E+05   7.02619162999999942E+05   7.02644162999999942E+05
             7.02669162999999942E+05   7.02694162999999942E+05   7.02719162999999942E+05   7.02744162999999942E+05   7.02769162999999942E+05
             7.02794162999999942E+05   7.02819162999999942E+05   7.02844162999999942E+05   7.02869162999999942E+05   7.02894162999999942E+05
             7.02919162999999942E+05   7.02944162999999942E+05   7.02969162999999942E+05   7.02994162999999942E+05   7.03019162999999942E+05
             7.03044162999999942E+05   7.03069162999999942E+05   7.03094162999999942E+05   7.03119162999999942E+05   7.03144162999999942E+05
             7.03169162999999942E+05   7.03194162999999942E+05   7.03219162999999942E+05   7.03244162999999942E+05   7.03269162999999942E+05
             7.03294162999999942E+05   7.03319162999999942E+05   7.03344162999999942E+05   7.03369162999999942E+05   7.03394162999999942E+05
             7.03419162999999942E+05   7.03444162999999942E+05   7.03469162999999942E+05   7.03494162999999942E+05   7.03519162999999942E+05
             7.03544162999999942E+05   7.03569162999999942E+05   7.03594162999999942E+05   7.03619162999999942E+05   7.03644162999999942E+05
             7.03669162999999942E+05   7.03694162999999942E+05   7.03719162999999942E+05   7.03744162999999942E+05   7.03769162999999942E+05
             7.03794162999999942E+05   7.03819162999999942E+05   7.03844162999999942E+05   7.03869162999999942E+05   7.03894162999999942E+05
             7.03919162999999942E+05   7.03944162999999942E+05
 ETA=   35   7.01919162999999942E+05   7.01944162999999942E+05   7.01969162999999942E+05   7.01994162999999942E+05   7.02019162999999942E+05
             7.02044162999999942E+05   7.02069162999999942E+05   7.02094162999999942E+05   7.02119162999999942E+05   7.02144162999999942E+05
             7.02169162999999942E+05   7.02194162999999942E+05   7.02219162999999942E+05   7.02244162999999942E+05   7.02269162999999942E+05
             7.02294162999999942E+05   7.02319162999999942E+05   7.02344162999999942E+05   7.02369162999999942E+05   7.02394162999999942E+05
             7.02419162999999942E+05   7.02444162999999942E+05   7.02469162999999942E+05   7.02494162999999942E+05   7.02519162999999942E+05
             7.02544162999999942E+05   7.02569162999999942E+05   7.02594162999999942E+05   7.02619162999999942E+05   7.02644162999999942E+05
[...]
             9.32418100799999945E+06   9.32418100799999945E+06   9.32418100799999945E+06   9.32418100799999945E+06   9.32418100799999945E+06
             9.32418100799999945E+06   9.32418100799999945E+06   9.32418100799999945E+06   9.32418100799999945E+06   9.32418100799999945E+06
             9.32418100799999945E+06   9.32418100799999945E+06   9.32418100799999945E+06   9.32418100799999945E+06   9.32418100799999945E+06
             9.32418100799999945E+06   9.32418100799999945E+06   9.32418100799999945E+06   9.32418100799999945E+06   9.32418100799999945E+06
             9.32418100799999945E+06   9.32418100799999945E+06   9.32418100799999945E+06   9.32418100799999945E+06   9.32418100799999945E+06
             9.32418100799999945E+06   9.32418100799999945E+06   9.32418100799999945E+06   9.32418100799999945E+06   9.32418100799999945E+06
             9.32418100799999945E+06   9.32418100799999945E+06   9.32418100799999945E+06   9.32418100799999945E+06   9.32418100799999945E+06
             9.32418100799999945E+06   9.32418100799999945E+06   9.32418100799999945E+06   9.32418100799999945E+06   9.32418100799999945E+06
             9.32418100799999945E+06   9.32418100799999945E+06   9.32418100799999945E+06   9.32418100799999945E+06   9.32418100799999945E+06
             9.32418100799999945E+06   9.32418100799999945E+06
 ETA=   48   9.32420600799999945E+06   9.32420600799999945E+06   9.32420600799999945E+06   9.32420600799999945E+06   9.32420600799999945E+06
             9.32420600799999945E+06   9.32420600799999945E+06   9.32420600799999945E+06   9.32420600799999945E+06   9.32420600799999945E+06
             9.32420600799999945E+06   9.32420600799999945E+06   9.32420600799999945E+06   9.32420600799999945E+06   9.32420600799999945E+06
             9.32420600799999945E+06   9.32420600799999945E+06   9.32420600799999945E+06   9.32420600799999945E+06   9.32420600799999945E+06
             9.32420600799999945E+06   9.32420600799999945E+06   9.32420600799999945E+06   9.32420600799999945E+06   9.32420600799999945E+06
             9.32420600799999945E+06   9.32420600799999945E+06   9.32420600799999945E+06   9.32420600799999945E+06   9.32420600799999945E+06
             9.32420600799999945E+06   9.32420600799999945E+06   9.32420600799999945E+06   9.32420600799999945E+06   9.32420600799999945E+06
             9.32420600799999945E+06   9.32420600799999945E+06   9.32420600799999945E+06   9.32420600799999945E+06   9.32420600799999945E+06
             9.32420600799999945E+06   9.32420600799999945E+06   9.32420600799999945E+06   9.32420600799999945E+06   9.32420600799999945E+06
             9.32420600799999945E+06   9.32420600799999945E+06   9.32420600799999945E+06   9.32420600799999945E+06   9.32420600799999945E+06
             9.32420600799999945E+06   9.32420600799999945E+06   9.32420600799999945E+06   9.32420600799999945E+06   9.32420600799999945E+06
             9.32420600799999945E+06   9.32420600799999945E+06   9.32420600799999945E+06   9.32420600799999945E+06   9.32420600799999945E+06
             9.32420600799999945E+06   9.32420600799999945E+06   9.32420600799999945E+06   9.32420600799999945E+06   9.32420600799999945E+06
             9.32420600799999945E+06   9.32420600799999945E+06   9.32420600799999945E+06   9.32420600799999945E+06   9.32420600799999945E+06
             9.32420600799999945E+06   9.32420600799999945E+06   9.32420600799999945E+06   9.32420600799999945E+06   9.32420600799999945E+06
             9.32420600799999945E+06   9.32420600799999945E+06   9.32420600799999945E+06   9.32420600799999945E+06   9.32420600799999945E+06
             9.32420600799999945E+06   9.32420600799999945E+06
 ETA=   49   9.32423100799999945E+06   9.32423100799999945E+06   9.32423100799999945E+06   9.32423100799999945E+06   9.32423100799999945E+06
             9.32423100799999945E+06   9.32423100799999945E+06   9.32423100799999945E+06   9.32423100799999945E+06   9.32423100799999945E+06
             9.32423100799999945E+06   9.32423100799999945E+06   9.32423100799999945E+06   9.32423100799999945E+06   9.32423100799999945E+06
             9.32423100799999945E+06   9.32423100799999945E+06   9.32423100799999945E+06   9.32423100799999945E+06   9.32423100799999945E+06
             9.32423100799999945E+06   9.32423100799999945E+06   9.32423100799999945E+06   9.32423100799999945E+06   9.32423100799999945E+06
             9.32423100799999945E+06   9.32423100799999945E+06   9.32423100799999945E+06   9.32423100799999945E+06   9.32423100799999945E+06
             9.32423100799999945E+06   9.32423100799999945E+06   9.32423100799999945E+06   9.32423100799999945E+06   9.32423100799999945E+06
             9.32423100799999945E+06   9.32423100799999945E+06   9.32423100799999945E+06   9.32423100799999945E+06   9.32423100799999945E+06
             9.32423100799999945E+06   9.32423100799999945E+06   9.32423100799999945E+06   9.32423100799999945E+06   9.32423100799999945E+06
             9.32423100799999945E+06   9.32423100799999945E+06   9.32423100799999945E+06   9.32423100799999945E+06   9.32423100799999945E+06
             9.32423100799999945E+06   9.32423100799999945E+06   9.32423100799999945E+06   9.32423100799999945E+06   9.32423100799999945E+06
             9.32423100799999945E+06   9.32423100799999945E+06   9.32423100799999945E+06   9.32423100799999945E+06   9.32423100799999945E+06
             9.32423100799999945E+06   9.32423100799999945E+06   9.32423100799999945E+06   9.32423100799999945E+06   9.32423100799999945E+06
             9.32423100799999945E+06   9.32423100799999945E+06   9.32423100799999945E+06   9.32423100799999945E+06   9.32423100799999945E+06
             9.32423100799999945E+06   9.32423100799999945E+06   9.32423100799999945E+06   9.32423100799999945E+06   9.32423100799999945E+06
             9.32423100799999945E+06   9.32423100799999945E+06   9.32423100799999945E+06   9.32423100799999945E+06   9.32423100799999945E+06
             9.32423100799999945E+06   9.32423100799999945E+06
 ETA=   50   9.32425600799999945E+06   9.32425600799999945E+06   9.32425600799999945E+06   9.32425600799999945E+06   9.32425600799999945E+06
             9.32425600799999945E+06   9.32425600799999945E+06   9.32425600799999945E+06   9.32425600799999945E+06   9.32425600799999945E+06
             9.32425600799999945E+06   9.32425600799999945E+06   9.32425600799999945E+06   9.32425600799999945E+06   9.32425600799999945E+06
             9.32425600799999945E+06   9.32425600799999945E+06   9.32425600799999945E+06   9.32425600799999945E+06   9.32425600799999945E+06
             9.32425600799999945E+06   9.32425600799999945E+06   9.32425600799999945E+06   9.32425600799999945E+06   9.32425600799999945E+06
             9.32425600799999945E+06   9.32425600799999945E+06   9.32425600799999945E+06   9.32425600799999945E+06   9.32425600799999945E+06
             9.32425600799999945E+06   9.32425600799999945E+06   9.32425600799999945E+06   9.32425600799999945E+06   9.32425600799999945E+06
             9.32425600799999945E+06   9.32425600799999945E+06   9.32425600799999945E+06   9.32425600799999945E+06   9.32425600799999945E+06
             9.32425600799999945E+06   9.32425600799999945E+06   9.32425600799999945E+06   9.32425600799999945E+06   9.32425600799999945E+06
             9.32425600799999945E+06   9.32425600799999945E+06   9.32425600799999945E+06   9.32425600799999945E+06   9.32425600799999945E+06
             9.32425600799999945E+06   9.32425600799999945E+06   9.32425600799999945E+06   9.32425600799999945E+06   9.32425600799999945E+06
             9.32425600799999945E+06   9.32425600799999945E+06   9.32425600799999945E+06   9.32425600799999945E+06   9.32425600799999945E+06
             9.32425600799999945E+06   9.32425600799999945E+06   9.32425600799999945E+06   9.32425600799999945E+06   9.32425600799999945E+06
             9.32425600799999945E+06   9.32425600799999945E+06   9.32425600799999945E+06   9.32425600799999945E+06   9.32425600799999945E+06
             9.32425600799999945E+06   9.32425600799999945E+06   9.32425600799999945E+06   9.32425600799999945E+06   9.32425600799999945E+06
             9.32425600799999945E+06   9.32425600799999945E+06   9.32425600799999945E+06   9.32425600799999945E+06   9.32425600799999945E+06
             9.32425600799999945E+06   9.32425600799999945E+06
 ETA=   51   9.32428100799999945E+06   9.32428100799999945E+06   9.32428100799999945E+06   9.32428100799999945E+06   9.32428100799999945E+06
             9.32428100799999945E+06   9.32428100799999945E+06   9.32428100799999945E+06   9.32428100799999945E+06   9.32428100799999945E+06
             9.32428100799999945E+06   9.32428100799999945E+06   9.32428100799999945E+06   9.32428100799999945E+06   9.32428100799999945E+06
             9.32428100799999945E+06   9.32428100799999945E+06   9.32428100799999945E+06   9.32428100799999945E+06   9.32428100799999945E+06
             9.32428100799999945E+06   9.32428100799999945E+06   9.32428100799999945E+06   9.32428100799999945E+06   9.32428100799999945E+06
             9.32428100799999945E+06   9.32428100799999945E+06   9.32428100799999945E+06   9.32428100799999945E+06   9.32428100799999945E+06
             9.32428100799999945E+06   9.32428100799999945E+06   9.32428100799999945E+06   9.32428100799999945E+06   9.32428100799999945E+06
             9.32428100799999945E+06   9.32428100799999945E+06   9.32428100799999945E+06   9.32428100799999945E+06   9.32428100799999945E+06
             9.32428100799999945E+06   9.32428100799999945E+06   9.32428100799999945E+06   9.32428100799999945E+06   9.32428100799999945E+06
             9.32428100799999945E+06   9.32428100799999945E+06   9.32428100799999945E+06   9.32428100799999945E+06   9.32428100799999945E+06
             9.32428100799999945E+06   9.32428100799999945E+06   9.32428100799999945E+06   9.32428100799999945E+06   9.32428100799999945E+06
             9.32428100799999945E+06   9.32428100799999945E+06   9.32428100799999945E+06   9.32428100799999945E+06   9.32428100799999945E+06
             9.32428100799999945E+06   9.32428100799999945E+06   9.32428100799999945E+06   9.32428100799999945E+06   9.32428100799999945E+06
             9.32428100799999945E+06   9.32428100799999945E+06   9.32428100799999945E+06   9.32428100799999945E+06   9.32428100799999945E+06
             9.32428100799999945E+06   9.32428100799999945E+06   9.32428100799999945E+06   9.32428100799999945E+06   9.32428100799999945E+06
             9.32428100799999945E+06   9.32428100799999945E+06   9.32428100799999945E+06   9.32428100799999945E+06   9.32428100799999945E+06
             9.32428100799999945E+06   9.32428100799999945E+06
 ETA=   52   9.32430600799999945E+06   9.32430600799999945E+06   9.32430600799999945E+06   9.32430600799999945E+06   9.32430600799999945E+06
             9.32430600799999945E+06   9.32430600799999945E+06   9.32430600799999945E+06   9.32430600799999945E+06   9.32430600799999945E+06
             9.32430600799999945E+06   9.32430600799999945E+06   9.32430600799999945E+06   9.32430600799999945E+06   9.32430600799999945E+06
             9.32430600799999945E+06   9.32430600799999945E+06   9.32430600799999945E+06   9.32430600799999945E+06   9.32430600799999945E+06
             9.32430600799999945E+06   9.32430600799999945E+06   9.32430600799999945E+06   9.32430600799999945E+06   9.32430600799999945E+06
             9.32430600799999945E+06   9.32430600799999945E+06   9.32430600799999945E+06   9.32430600799999945E+06   9.32430600799999945E+06
             9.32430600799999945E+06   9.32430600799999945E+06   9.32430600799999945E+06   9.32430600799999945E+06   9.32430600799999945E+06
             9.32430600799999945E+06   9.32430600799999945E+06   9.32430600799999945E+06   9.32430600799999945E+06   9.32430600799999945E+06
             9.32430600799999945E+06   9.32430600799999945E+06   9.32430600799999945E+06   9.32430600799999945E+06   9.32430600799999945E+06
             9.32430600799999945E+06   9.32430600799999945E+06   9.32430600799999945E+06   9.32430600799999945E+06   9.32430600799999945E+06
             9.32430600799999945E+06   9.32430600799999945E+06   9.32430600799999945E+06   9.32430600799999945E+06   9.32430600799999945E+06
             9.32430600799999945E+06   9.32430600799999945E+06   9.32430600799999945E+06   9.32430600799999945E+06   9.32430600799999945E+06
             9.32430600799999945E+06   9.32430600799999945E+06   9.32430600799999945E+06   9.32430600799999945E+06   9.32430600799999945E+06
             9.32430600799999945E+06   9.32430600799999945E+06   9.32430600799999945E+06   9.32430600799999945E+06   9.32430600799999945E+06
             9.32430600799999945E+06   9.32430600799999945E+06   9.32430600799999945E+06   9.32430600799999945E+06   9.32430600799999945E+06
             9.32430600799999945E+06   9.32430600799999945E+06   9.32430600799999945E+06   9.32430600799999945E+06   9.32430600799999945E+06
             9.32430600799999945E+06   9.32430600799999945E+06
 ETA=   53   9.32433100799999945E+06   9.32433100799999945E+06   9.32433100799999945E+06   9.32433100799999945E+06   9.32433100799999945E+06
             9.32433100799999945E+06   9.32433100799999945E+06   9.32433100799999945E+06   9.32433100799999945E+06   9.32433100799999945E+06
             9.32433100799999945E+06   9.32433100799999945E+06   9.32433100799999945E+06   9.32433100799999945E+06   9.32433100799999945E+06
             9.32433100799999945E+06   9.32433100799999945E+06   9.32433100799999945E+06   9.32433100799999945E+06   9.32433100799999945E+06
             9.32433100799999945E+06   9.32433100799999945E+06   9.32433100799999945E+06   9.32433100799999945E+06   9.32433100799999945E+06
             9.32433100799999945E+06   9.32433100799999945E+06   9.32433100799999945E+06   9.32433100799999945E+06   9.32433100799999945E+06
             9.32433100799999945E+06   9.32433100799999945E+06   9.32433100799999945E+06   9.32433100799999945E+06   9.32433100799999945E+06
             9.32433100799999945E+06   9.32433100799999945E+06   9.32433100799999945E+06   9.32433100799999945E+06   9.32433100799999945E+06
             9.32433100799999945E+06   9.32433100799999945E+06   9.32433100799999945E+06   9.32433100799999945E+06   9.32433100799999945E+06
             9.32433100799999945E+06   9.32433100799999945E+06   9.32433100799999945E+06   9.32433100799999945E+06   9.32433100799999945E+06
             9.32433100799999945E+06   9.32433100799999945E+06   9.32433100799999945E+06   9.32433100799999945E+06   9.32433100799999945E+06
             9.32433100799999945E+06   9.32433100799999945E+06   9.32433100799999945E+06   9.32433100799999945E+06   9.32433100799999945E+06
             9.32433100799999945E+06   9.32433100799999945E+06   9.32433100799999945E+06   9.32433100799999945E+06   9.32433100799999945E+06
             9.32433100799999945E+06   9.32433100799999945E+06   9.32433100799999945E+06   9.32433100799999945E+06   9.32433100799999945E+06
             9.32433100799999945E+06   9.32433100799999945E+06   9.32433100799999945E+06   9.32433100799999945E+06   9.32433100799999945E+06
             9.32433100799999945E+06   9.32433100799999945E+06   9.32433100799999945E+06   9.32433100799999945E+06   9.32433100799999945E+06
             9.32433100799999945E+06   9.32433100799999945E+06
 ETA=   54   9.32435600799999945E+06   9.32435600799999945E+06   9.32435600799999945E+06   9.32435600799999945E+06   9.32435600799999945E+06
             9.32435600799999945E+06   9.32435600799999945E+06   9.32435600799999945E+06   9.32435600799999945E+06   9.32435600799999945E+06
             9.32435600799999945E+06   9.32435600799999945E+06   9.32435600799999945E+06   9.32435600799999945E+06   9.32435600799999945E+06
             9.32435600799999945E+06   9.32435600799999945E+06   9.32435600799999945E+06   9.32435600799999945E+06   9.32435600799999945E+06
             9.32435600799999945E+06   9.32435600799999945E+06   9.32435600799999945E+06   9.32435600799999945E+06   9.32435600799999945E+06
             9.32435600799999945E+06   9.32435600799999945E+06   9.32435600799999945E+06   9.32435600799999945E+06   9.32435600799999945E+06
             9.32435600799999945E+06   9.32435600799999945E+06   9.32435600799999945E+06   9.32435600799999945E+06   9.32435600799999945E+06
             9.32435600799999945E+06   9.32435600799999945E+06   9.32435600799999945E+06   9.32435600799999945E+06   9.32435600799999945E+06
             9.32435600799999945E+06   9.32435600799999945E+06   9.32435600799999945E+06   9.32435600799999945E+06   9.32435600799999945E+06
             9.32435600799999945E+06   9.32435600799999945E+06   9.32435600799999945E+06   9.32435600799999945E+06   9.32435600799999945E+06
             9.32435600799999945E+06   9.32435600799999945E+06   9.32435600799999945E+06   9.32435600799999945E+06   9.32435600799999945E+06
             9.32435600799999945E+06   9.32435600799999945E+06   9.32435600799999945E+06   9.32435600799999945E+06   9.32435600799999945E+06
             9.32435600799999945E+06   9.32435600799999945E+06   9.32435600799999945E+06   9.32435600799999945E+06   9.32435600799999945E+06
             9.32435600799999945E+06   9.32435600799999945E+06   9.32435600799999945E+06   9.32435600799999945E+06   9.32435600799999945E+06
             9.32435600799999945E+06   9.32435600799999945E+06   9.32435600799999945E+06   9.32435600799999945E+06   9.32435600799999945E+06
             9.32435600799999945E+06   9.32435600799999945E+06   9.32435600799999945E+06   9.32435600799999945E+06   9.32435600799999945E+06
             9.32435600799999945E+06   9.32435600799999945E+06
 ETA=   55   9.32438100799999945E+06   9.32438100799999945E+06   9.32438100799999945E+06   9.32438100799999945E+06   9.32438100799999945E+06
             9.32438100799999945E+06   9.32438100799999945E+06   9.32438100799999945E+06   9.32438100799999945E+06   9.32438100799999945E+06
             9.32438100799999945E+06   9.32438100799999945E+06   9.32438100799999945E+06   9.32438100799999945E+06   9.32438100799999945E+06
             9.32438100799999945E+06   9.32438100799999945E+06   9.32438100799999945E+06   9.32438100799999945E+06   9.32438100799999945E+06
             9.32438100799999945E+06   9.32438100799999945E+06   9.32438100799999945E+06   9.32438100799999945E+06   9.32438100799999945E+06
             9.32438100799999945E+06   9.32438100799999945E+06   9.32438100799999945E+06   9.32438100799999945E+06   9.32438100799999945E+06
             9.32438100799999945E+06   9.32438100799999945E+06   9.32438100799999945E+06   9.32438100799999945E+06   9.32438100799999945E+06
             9.32438100799999945E+06   9.32438100799999945E+06   9.32438100799999945E+06   9.32438100799999945E+06   9.32438100799999945E+06
             9.32438100799999945E+06   9.32438100799999945E+06   9.32438100799999945E+06   9.32438100799999945E+06   9.32438100799999945E+06
             9.32438100799999945E+06   9.32438100799999945E+06   9.32438100799999945E+06   9.32438100799999945E+06   9.32438100799999945E+06
             9.32438100799999945E+06   9.32438100799999945E+06   9.32438100799999945E+06   9.32438100799999945E+06   9.32438100799999945E+06
             9.32438100799999945E+06   9.32438100799999945E+06   9.32438100799999945E+06   9.32438100799999945E+06   9.32438100799999945E+06
             9.32438100799999945E+06   9.32438100799999945E+06   9.32438100799999945E+06   9.32438100799999945E+06   9.32438100799999945E+06
             9.32438100799999945E+06   9.32438100799999945E+06   9.32438100799999945E+06   9.32438100799999945E+06   9.32438100799999945E+06
             9.32438100799999945E+06   9.32438100799999945E+06   9.32438100799999945E+06   9.32438100799999945E+06   9.32438100799999945E+06
             9.32438100799999945E+06   9.32438100799999945E+06   9.32438100799999945E+06   9.32438100799999945E+06   9.32438100799999945E+06
             9.32438100799999945E+06   9.32438100799999945E+06
