*
* Deltares, Delft3D-RGFGRID Version 4.18.01.18383, Sep  7 2011, 14:23:22
* File creation date: 2014-07-03, 10:36:06
*
Coordinate System = Cartesian
      68     177
 0 0 0
 ETA=    1   0.00000000000000000E+00   0.00000000000000000E+00   0.00000000000000000E+00   0.00000000000000000E+00   0.00000000000000000E+00
             0.00000000000000000E+00   0.00000000000000000E+00   0.00000000000000000E+00   0.00000000000000000E+00   0.00000000000000000E+00
             0.00000000000000000E+00   0.00000000000000000E+00   0.00000000000000000E+00   0.00000000000000000E+00   0.00000000000000000E+00
             0.00000000000000000E+00   0.00000000000000000E+00   0.00000000000000000E+00   0.00000000000000000E+00   0.00000000000000000E+00
             0.00000000000000000E+00   0.00000000000000000E+00   0.00000000000000000E+00   0.00000000000000000E+00   0.00000000000000000E+00
             0.00000000000000000E+00   0.00000000000000000E+00   0.00000000000000000E+00   0.00000000000000000E+00   0.00000000000000000E+00
             0.00000000000000000E+00   0.00000000000000000E+00   0.00000000000000000E+00   0.00000000000000000E+00   6.98666155842039268E+05
             6.98662544050405617E+05   6.98658776992414030E+05   6.98654858885336551E+05   6.98650792807741440E+05   6.98646580896072555E+05
             6.98642226082896581E+05   6.98637732726938440E+05   6.98633106212245882E+05   6.98628352339627221E+05   6.98623476921699359E+05
             6.98618486435238621E+05   6.98613388443562551E+05   6.98608191960360156E+05   6.98602906622770708E+05   6.98597539877497358E+05
             6.98592097210570588E+05   6.98586583582278457E+05   6.98581004125609528E+05   6.98575364868254401E+05   6.98569672511753044E+05
             6.98563933588139946E+05   6.98558154007803416E+05   6.98552339214252657E+05   6.98546495600992232E+05   6.98540630709561636E+05
             6.98534752698551514E+05   6.98528869983746321E+05   6.98522990637205541E+05   6.98517122185163083E+05   6.98511271547809476E+05
             6.98505444926309399E+05   6.98499647864333703E+05   6.98493885261348099E+05
 ETA=    2   0.00000000000000000E+00   0.00000000000000000E+00   0.00000000000000000E+00   0.00000000000000000E+00   0.00000000000000000E+00
             0.00000000000000000E+00   0.00000000000000000E+00   0.00000000000000000E+00   0.00000000000000000E+00   0.00000000000000000E+00
             0.00000000000000000E+00   0.00000000000000000E+00   0.00000000000000000E+00   0.00000000000000000E+00   0.00000000000000000E+00
             0.00000000000000000E+00   0.00000000000000000E+00   0.00000000000000000E+00   0.00000000000000000E+00   0.00000000000000000E+00
             0.00000000000000000E+00   0.00000000000000000E+00   0.00000000000000000E+00   0.00000000000000000E+00   0.00000000000000000E+00
             0.00000000000000000E+00   0.00000000000000000E+00   0.00000000000000000E+00   0.00000000000000000E+00   0.00000000000000000E+00
             0.00000000000000000E+00   0.00000000000000000E+00   0.00000000000000000E+00   0.00000000000000000E+00   6.98613166942932061E+05
             6.98609688965964364E+05   6.98606059166092193E+05   6.98602281544439029E+05   6.98598359014131129E+05   6.98594293790349970E+05
             6.98590089140474447E+05   6.98585750212252489E+05   6.98581283199663041E+05   6.98576694587731501E+05   6.98571990768051357E+05
             6.98567178698604228E+05   6.98562265989027685E+05   6.98557261163799441E+05   6.98552173427514732E+05   6.98547010528709856E+05
             6.98541778784784605E+05   6.98536483972507878E+05   6.98531131543661933E+05   6.98525727199876797E+05   6.98520276992940460E+05
             6.98514786639244528E+05   6.98509261181804817E+05   6.98503705437176046E+05   6.98498125500927446E+05   6.98492529349846649E+05
             6.98486925777140423E+05   6.98481323682979215E+05   6.98475731349034701E+05   6.98470156122541870E+05   6.98464604271508055E+05
             6.98459081222985289E+05   6.98453592130263569E+05   6.98448142159273382E+05
 ETA=    3   0.00000000000000000E+00   0.00000000000000000E+00   0.00000000000000000E+00   0.00000000000000000E+00   0.00000000000000000E+00
             0.00000000000000000E+00   0.00000000000000000E+00   0.00000000000000000E+00   0.00000000000000000E+00   0.00000000000000000E+00
             0.00000000000000000E+00   0.00000000000000000E+00   0.00000000000000000E+00   0.00000000000000000E+00   0.00000000000000000E+00
             0.00000000000000000E+00   0.00000000000000000E+00   0.00000000000000000E+00   0.00000000000000000E+00   0.00000000000000000E+00
             0.00000000000000000E+00   0.00000000000000000E+00   0.00000000000000000E+00   0.00000000000000000E+00   0.00000000000000000E+00
             0.00000000000000000E+00   0.00000000000000000E+00   0.00000000000000000E+00   0.00000000000000000E+00   0.00000000000000000E+00
             0.00000000000000000E+00   0.00000000000000000E+00   0.00000000000000000E+00   0.00000000000000000E+00   6.98560346833366319E+05
             6.98557001850166591E+05   6.98553508458851255E+05   6.98549870525567443E+05   6.98546091021877714E+05   6.98542172479851986E+05
             6.98538118541160016E+05   6.98533934990178794E+05   6.98529628738957108E+05   6.98525206936447066E+05   6.98520676429456449E+05
             6.98516044369328651E+05   6.98511318353926064E+05   6.98506506627009483E+05   6.98501618182835402E+05   6.98496661013909732E+05
             6.98491641922181821E+05   6.98486567153901095E+05   6.98481442409143317E+05   6.98476273147234693E+05   6.98471064818925923E+05
             6.98465822521433118E+05   6.98460550758528290E+05   6.98455254035212100E+05   6.98449938195756287E+05   6.98444611411143327E+05
             6.98439282938868157E+05   6.98433962198824622E+05   6.98428657733769156E+05   6.98423376759789302E+05   6.98418125135437935E+05
             6.98412907819871558E+05   6.98407729674174567E+05   6.98402595841903356E+05
 ETA=    4   0.00000000000000000E+00   0.00000000000000000E+00   0.00000000000000000E+00   0.00000000000000000E+00   0.00000000000000000E+00
             0.00000000000000000E+00   0.00000000000000000E+00   0.00000000000000000E+00   0.00000000000000000E+00   0.00000000000000000E+00
             0.00000000000000000E+00   0.00000000000000000E+00   0.00000000000000000E+00   0.00000000000000000E+00   0.00000000000000000E+00
             0.00000000000000000E+00   0.00000000000000000E+00   0.00000000000000000E+00   0.00000000000000000E+00   0.00000000000000000E+00
             0.00000000000000000E+00   0.00000000000000000E+00   0.00000000000000000E+00   0.00000000000000000E+00   0.00000000000000000E+00
             0.00000000000000000E+00   0.00000000000000000E+00   0.00000000000000000E+00   0.00000000000000000E+00   0.00000000000000000E+00
             0.00000000000000000E+00   0.00000000000000000E+00   0.00000000000000000E+00   0.00000000000000000E+00   6.98507698460057843E+05
             6.98504484923869255E+05   6.98501126144297654E+05   6.98497626370983548E+05   6.98493989097497542E+05   6.98490217527115950E+05
             6.98486315756340744E+05   6.98482289728189935E+05   6.98478146350534051E+05   6.98473892885041190E+05   6.98469536526710028E+05
             6.98465084812468034E+05   6.98460545809814823E+05   6.98455928122363170E+05   6.98451240858629113E+05   6.98446491978559061E+05
             6.98441688020493486E+05   6.98436834887601086E+05   6.98431938048589625E+05   6.98427002818848705E+05   6.98422034510572441E+05
             6.98417038262112183E+05   6.98412018711620942E+05   6.98406980613671010E+05   6.98401929797804332E+05   6.98396874156994279E+05
             6.98391822484874749E+05   6.98386783892167383E+05   6.98381767075672280E+05   6.98376779734333861E+05   6.98371828302360140E+05
             6.98366918068984291E+05   6.98362053925451706E+05   6.98357240789019386E+05
 ETA=    5   0.00000000000000000E+00   0.00000000000000000E+00   0.00000000000000000E+00   0.00000000000000000E+00   0.00000000000000000E+00
             0.00000000000000000E+00   0.00000000000000000E+00   0.00000000000000000E+00   0.00000000000000000E+00   0.00000000000000000E+00
             0.00000000000000000E+00   0.00000000000000000E+00   0.00000000000000000E+00   0.00000000000000000E+00   0.00000000000000000E+00
             0.00000000000000000E+00   0.00000000000000000E+00   0.00000000000000000E+00   0.00000000000000000E+00   0.00000000000000000E+00
             0.00000000000000000E+00   0.00000000000000000E+00   0.00000000000000000E+00   0.00000000000000000E+00   0.00000000000000000E+00
             0.00000000000000000E+00   0.00000000000000000E+00   0.00000000000000000E+00   0.00000000000000000E+00   0.00000000000000000E+00
             0.00000000000000000E+00   0.00000000000000000E+00   0.00000000000000000E+00   0.00000000000000000E+00   6.98455222053610720E+05
             6.98452138927735039E+05   6.98448913564823917E+05   6.98445550584289944E+05   6.98442054318357375E+05   6.98438429052917520E+05
             6.98434679501585546E+05   6.98430811578247813E+05   6.98426831956375390E+05   6.98422747769493959E+05   6.98418566415684996E+05
             6.98414295834071003E+05   6.98409944698102539E+05   6.98405522169518168E+05   6.98401037527140579E+05   6.98396498470770312E+05
             6.98391910900588497E+05   6.98387280183554045E+05   6.98382611519410391E+05   6.98377910100988811E+05   6.98373181107985321E+05
             6.98368429772888077E+05   6.98363661257384112E+05   6.98358881039119442E+05   6.98354095130148111E+05   6.98349310996378888E+05
             6.98344536811225116E+05   6.98339781161696184E+05   6.98335052744745975E+05   6.98330359620962990E+05   6.98325708888301393E+05
             6.98321106664823717E+05   6.98316558347241604E+05   6.98312068599640392E+05
 ETA=    6   0.00000000000000000E+00   0.00000000000000000E+00   0.00000000000000000E+00   0.00000000000000000E+00   0.00000000000000000E+00
             0.00000000000000000E+00   0.00000000000000000E+00   0.00000000000000000E+00   0.00000000000000000E+00   0.00000000000000000E+00
             0.00000000000000000E+00   0.00000000000000000E+00   0.00000000000000000E+00   0.00000000000000000E+00   0.00000000000000000E+00
             0.00000000000000000E+00   0.00000000000000000E+00   0.00000000000000000E+00   0.00000000000000000E+00   0.00000000000000000E+00
             0.00000000000000000E+00   0.00000000000000000E+00   0.00000000000000000E+00   0.00000000000000000E+00   0.00000000000000000E+00
             0.00000000000000000E+00   0.00000000000000000E+00   0.00000000000000000E+00   0.00000000000000000E+00   0.00000000000000000E+00
             0.00000000000000000E+00   0.00000000000000000E+00   0.00000000000000000E+00   0.00000000000000000E+00   6.98402916279701167E+05
             6.98399962174476474E+05   6.98396868656901526E+05   6.98393640750413761E+05   6.98390283815830247E+05   6.98386803399019060E+05
             6.98383205024453229E+05   6.98379494683119934E+05   6.98375678798120702E+05   6.98371764286977588E+05   6.98367758657119353E+05
             6.98363670229685027E+05   6.98359508198674535E+05   6.98355282011359581E+05   6.98351000833890401E+05   6.98346672093653004E+05
             6.98342301197446068E+05   6.98337893073143554E+05   6.98333452685804921E+05   6.98328985016170889E+05   6.98324495045507909E+05
             6.98319988102118135E+05   6.98315469998661894E+05   6.98310947049592389E+05   6.98306425617132918E+05   6.98301912788447924E+05
             6.98297416128002689E+05   6.98292943705332349E+05   6.98288504117112840E+05   6.98284105638333014E+05   6.98279756016753032E+05
             6.98275462367651053E+05   6.98271230811447254E+05   6.98267065951849218E+05
 ETA=    7   0.00000000000000000E+00   0.00000000000000000E+00   0.00000000000000000E+00   0.00000000000000000E+00   0.00000000000000000E+00
             0.00000000000000000E+00   0.00000000000000000E+00   0.00000000000000000E+00   0.00000000000000000E+00   0.00000000000000000E+00
             0.00000000000000000E+00   0.00000000000000000E+00   0.00000000000000000E+00   0.00000000000000000E+00   0.00000000000000000E+00
             0.00000000000000000E+00   0.00000000000000000E+00   0.00000000000000000E+00   0.00000000000000000E+00   0.00000000000000000E+00
             0.00000000000000000E+00   0.00000000000000000E+00   0.00000000000000000E+00   0.00000000000000000E+00   0.00000000000000000E+00
             0.00000000000000000E+00   0.00000000000000000E+00   0.00000000000000000E+00   0.00000000000000000E+00   0.00000000000000000E+00
             0.00000000000000000E+00   0.00000000000000000E+00   0.00000000000000000E+00   0.00000000000000000E+00   6.98350780044422834E+05
             6.98347952887774445E+05   6.98344989158075070E+05   6.98341894504505442E+05   6.98338675297180424E+05   6.98335338167831535E+05
             6.98331889427786809E+05   6.98328335346328793E+05   6.98324682435660274E+05   6.98320937782219495E+05   6.98317109147846350E+05
             6.98313204876835574E+05   6.98309233921706560E+05   6.98305205338189495E+05   6.98301127776873531E+05   6.98297008446387132E+05
             6.98292852885995875E+05   6.98288666214650380E+05   6.98284453412662260E+05   6.98280219139802037E+05   6.98275968053284101E+05
             6.98271705491257133E+05   6.98267437764399103E+05   6.98263171806412051E+05   6.98258914290695800E+05   6.98254672017512261E+05
             6.98250452153888415E+05   6.98246262516489718E+05   6.98242111691819970E+05   6.98238008191346773E+05   6.98233960336484015E+05
             6.98229976046850323E+05   6.98226061992291594E+05   6.98222222812925582E+05
 ETA=    8   0.00000000000000000E+00   0.00000000000000000E+00   0.00000000000000000E+00   0.00000000000000000E+00   0.00000000000000000E+00
             0.00000000000000000E+00   0.00000000000000000E+00   0.00000000000000000E+00   0.00000000000000000E+00   0.00000000000000000E+00
             0.00000000000000000E+00   0.00000000000000000E+00   0.00000000000000000E+00   0.00000000000000000E+00   0.00000000000000000E+00
             0.00000000000000000E+00   0.00000000000000000E+00   0.00000000000000000E+00   0.00000000000000000E+00   0.00000000000000000E+00
             0.00000000000000000E+00   0.00000000000000000E+00   0.00000000000000000E+00   0.00000000000000000E+00   0.00000000000000000E+00
             0.00000000000000000E+00   0.00000000000000000E+00   0.00000000000000000E+00   0.00000000000000000E+00   0.00000000000000000E+00
             0.00000000000000000E+00   0.00000000000000000E+00   0.00000000000000000E+00   0.00000000000000000E+00   6.98298810583193554E+05
             6.98296108211595449E+05   6.98293272624485078E+05   6.98290310269990587E+05   6.98287228278161841E+05   6.98284033968924545E+05
             6.98280734178844374E+05   6.98277335546677583E+05   6.98273844996903557E+05   6.98270270043465658E+05   6.98266618768690387E+05
             6.98262899422713439E+05   6.98259120364139671E+05   6.98255289861715399E+05   6.98251415842217626E+05   6.98247505367425154E+05
             6.98243564357335446E+05   6.98239598149197293E+05   6.98235611631427077E+05   6.98231609303903766E+05   6.98227595889148535E+05
             6.98223576900485321E+05   6.98219558916829759E+05   6.98215549109585118E+05   6.98211554232543334E+05   6.98207580968055059E+05
             6.98203636517582578E+05   6.98199728784967680E+05   6.98195866522711469E+05   6.98192058647429221E+05   6.98188313905579504E+05
             6.98184640595946228E+05   6.98181045569836861E+05   6.98177533410638804E+05
 ETA=    9   0.00000000000000000E+00   0.00000000000000000E+00   0.00000000000000000E+00   0.00000000000000000E+00   0.00000000000000000E+00
             0.00000000000000000E+00   0.00000000000000000E+00   0.00000000000000000E+00   0.00000000000000000E+00   0.00000000000000000E+00
             0.00000000000000000E+00   0.00000000000000000E+00   0.00000000000000000E+00   0.00000000000000000E+00   0.00000000000000000E+00
             0.00000000000000000E+00   0.00000000000000000E+00   0.00000000000000000E+00   0.00000000000000000E+00   0.00000000000000000E+00
             0.00000000000000000E+00   0.00000000000000000E+00   0.00000000000000000E+00   0.00000000000000000E+00   0.00000000000000000E+00
             0.00000000000000000E+00   0.00000000000000000E+00   0.00000000000000000E+00   0.00000000000000000E+00   0.00000000000000000E+00
             0.00000000000000000E+00   0.00000000000000000E+00   0.00000000000000000E+00   0.00000000000000000E+00   6.98247002222344163E+05
             6.98244422984277131E+05   6.98241714723570272E+05   6.98238884716944187E+05   6.98235940523598576E+05   6.98232889617248322E+05
             6.98229739031992620E+05   6.98226495842745760E+05   6.98223167604792747E+05   6.98219762405296089E+05   6.98216288584254566E+05
             6.98212754199762130E+05   6.98209166952777770E+05   6.98205534209086094E+05   6.98201863144018454E+05   6.98198160706573166E+05
             6.98194433072605752E+05   6.98190685614680988E+05   6.98186923149490147E+05   6.98183150292904465E+05   6.98179372177991085E+05
             6.98175594715799554E+05   6.98171824598246720E+05   6.98168068879443919E+05   6.98164334341097157E+05   6.98160627942629973E+05
             6.98156957325068535E+05   6.98153330754216644E+05   6.98149757283613435E+05   6.98146246283492073E+05   6.98142806726057199E+05
             6.98139446738955681E+05   6.98136172831394128E+05   6.98132989439350087E+05
 ETA=   10   0.00000000000000000E+00   0.00000000000000000E+00   0.00000000000000000E+00   0.00000000000000000E+00   0.00000000000000000E+00
             0.00000000000000000E+00   0.00000000000000000E+00   0.00000000000000000E+00   0.00000000000000000E+00   0.00000000000000000E+00
             0.00000000000000000E+00   0.00000000000000000E+00   0.00000000000000000E+00   0.00000000000000000E+00   0.00000000000000000E+00
             0.00000000000000000E+00   0.00000000000000000E+00   0.00000000000000000E+00   0.00000000000000000E+00   0.00000000000000000E+00
             0.00000000000000000E+00   0.00000000000000000E+00   0.00000000000000000E+00   0.00000000000000000E+00   0.00000000000000000E+00
             0.00000000000000000E+00   0.00000000000000000E+00   0.00000000000000000E+00   0.00000000000000000E+00   0.00000000000000000E+00
             0.00000000000000000E+00   0.00000000000000000E+00   0.00000000000000000E+00   6.98197675842645112E+05   6.98195350656078546E+05
             6.98192894287729869E+05   6.98190314166129800E+05   6.98187617909721797E+05   6.98184813025609474E+05   6.98181906803864520E+05
             6.98178906421293388E+05   6.98175819547886378E+05   6.98172654432411538E+05   6.98169419615931576E+05   6.98166123463229742E+05
             6.98162773680809070E+05   6.98159377381675993E+05   6.98155941331656999E+05   6.98152472075867001E+05   6.98148976155069890E+05
             6.98145459704024601E+05   6.98141928156778798E+05   6.98138386527070194E+05   6.98134839879435720E+05   6.98131293935425812E+05
             6.98127754953792784E+05   6.98124229496959015E+05   6.98120724412311683E+05   6.98117246794481762E+05   6.98113804468824412E+05
             6.98110406143334112E+05   6.98107060933605069E+05   6.98103778108343133E+05   6.98100566867049551E+05   6.98097435691985535E+05
             6.98094391951627098E+05   6.98091441453378764E+05   6.98088588471648982E+05
 ETA=   11   0.00000000000000000E+00   0.00000000000000000E+00   0.00000000000000000E+00   0.00000000000000000E+00   6.98129103748204070E+05
             6.98133173703139182E+05   6.98136909131837776E+05   6.98140321857419098E+05   6.98143423589613987E+05   6.98146225923967082E+05
             6.98148740389706218E+05   6.98150978509829263E+05   6.98152951966986875E+05   6.98154672167874523E+05   6.98156149734010920E+05
             6.98157394267899101E+05   6.98158414278454147E+05   6.98159217192159151E+05   6.98159808782797772E+05   6.98160193697687238E+05
             6.98160376201301930E+05   6.98160360387568478E+05   6.98160150053326390E+05   6.98159748463667696E+05   6.98159158295654110E+05
             6.98158382399526192E+05   6.98157424647218781E+05   6.98156289589152788E+05   6.98154982322038501E+05   6.98153508415897377E+05
             6.98151873981107259E+05   6.98150085666159634E+05   6.98148150403433363E+05   6.98146075319792144E+05   6.98143867474190309E+05
             6.98141533888386213E+05   6.98139082176144700E+05   6.98136519979494740E+05   6.98133854577694437E+05   6.98131093228860875E+05
             6.98128243387545110E+05   6.98125313239229494E+05   6.98122311503507895E+05   6.98119246906925109E+05   6.98116127666781424E+05
             6.98112961225680076E+05   6.98109754390847636E+05   6.98106513615315198E+05   6.98103244809232419E+05   6.98099953836203902E+05
             6.98096646682824474E+05   6.98093328966229339E+05   6.98090006080726977E+05   6.98086683639149647E+05   6.98083367847927264E+05
             6.98080065156015684E+05   6.98076782064924715E+05   6.98073525599514833E+05   6.98070303490980179E+05   6.98067124587453203E+05
             6.98063998654043069E+05   6.98060935468881973E+05   6.98057944303686381E+05   6.98055034081551479E+05   6.98052212688120082E+05
             6.98049486644885852E+05   6.98046861106832628E+05   6.98044340195802040E+05
 ETA=   12   0.00000000000000000E+00   0.00000000000000000E+00   0.00000000000000000E+00   0.00000000000000000E+00   6.98075897234023199E+05
             6.98079978483733139E+05   6.98083728549999301E+05   6.98087159425904509E+05   6.98090282959135366E+05   6.98093110830830294E+05
             6.98095654571378022E+05   6.98097925670087221E+05   6.98099935801258660E+05   6.98101696363287745E+05   6.98103218019094202E+05
             6.98104510412237840E+05   6.98105582097432576E+05   6.98106440581073868E+05   6.98107091791945626E+05   6.98107540554660256E+05
             6.98107791025852668E+05   6.98107846781584201E+05   6.98107710942815291E+05   6.98107386339193676E+05   6.98106875634760945E+05
             6.98106181975060026E+05   6.98105309540748014E+05   6.98104262980722589E+05   6.98103047386592021E+05   6.98101668399895192E+05
             6.98100132343367790E+05   6.98098446255929302E+05   6.98096617632357404E+05   6.98094654205041938E+05   6.98092563484577462E+05
             6.98090352604753221E+05   6.98088029013497988E+05   6.98085600168291247E+05   6.98083073331573629E+05   6.98080456126315868E+05
             6.98077756483680103E+05   6.98074982917590998E+05   6.98072144238633336E+05   6.98069249091249891E+05   6.98066305496407440E+05
             6.98063320796554792E+05   6.98060301761943614E+05   6.98057254644560395E+05   6.98054184754081536E+05   6.98051097231119522E+05
             6.98047997818476637E+05   6.98044892423245008E+05   6.98041787058186601E+05   6.98038687873792485E+05   6.98035601251525921E+05
             6.98032533728443319E+05   6.98029492055279901E+05   6.98026483874671278E+05   6.98023517715785536E+05   6.98020603204682469E+05
             6.98017750721877557E+05   6.98014970404465916E+05   6.98012271430492634E+05   6.98009662369115627E+05   6.98007150691996678E+05
             6.98004742501931498E+05   6.98002442698525847E+05   6.98000255280826474E+05
 ETA=   13   0.00000000000000000E+00   0.00000000000000000E+00   0.00000000000000000E+00   0.00000000000000000E+00   6.98022961392734782E+05
             6.98027050133376149E+05   6.98030811211332330E+05   6.98034256614573300E+05   6.98037398241755320E+05   6.98040247897655820E+05
             6.98042817257590243E+05   6.98045117915513925E+05   6.98047161486856639E+05   6.98048959205242456E+05   6.98050521613847348E+05
             6.98051858321642387E+05   6.98052977974778973E+05   6.98053888269040151E+05   6.98054595583563438E+05   6.98055105110501405E+05
             6.98055420797244413E+05   6.98055545307433349E+05   6.98055480748249451E+05   6.98055229579219362E+05   6.98054794805416372E+05
             6.98054180133245536E+05   6.98053390025428846E+05   6.98052429297215655E+05   6.98051303250403609E+05   6.98050017817592830E+05
             6.98048579665689147E+05   6.98046996125568170E+05   6.98045274844643776E+05   6.98043423556155758E+05   6.98041449781979900E+05
             6.98039360728583764E+05   6.98037163784948876E+05   6.98034866535833105E+05   6.98032476705103414E+05   6.98030002658531652E+05
             6.98027452901593992E+05   6.98024835917155375E+05   6.98022160031525535E+05   6.98019433437191183E+05   6.98016664041385171E+05
             6.98013859328877646E+05   6.98011026208263123E+05   6.98008170819317107E+05   6.98005298091014265E+05   6.98002412642770447E+05
             6.97999519975751755E+05   6.97996626167910174E+05   6.97993737605736242E+05   6.97990860805756296E+05   6.97988002385045635E+05
             6.97985169332485297E+05   6.97982369165817043E+05   6.97979610531801009E+05   6.97976902740526013E+05   6.97974255509400740E+05
             6.97971678748851526E+05   6.97969182165467297E+05   6.97966774863356492E+05   6.97964465535463183E+05   6.97962262028731056E+05
             6.97960170885051251E+05   6.97958197298755636E+05   6.97956345112146693E+05
 ETA=   14   0.00000000000000000E+00   0.00000000000000000E+00   0.00000000000000000E+00   0.00000000000000000E+00   6.97970300579424715E+05
             6.97974392794363899E+05   6.97978161163441022E+05   6.97981617553910473E+05   6.97984773789871950E+05   6.97987641692995210E+05
             6.97990233057939215E+05   6.97992559656614903E+05   6.97994633107168367E+05   6.97996464486562531E+05   6.97998064188490505E+05
             6.97999441758307279E+05   6.98000605900606723E+05   6.98001564489479526E+05   6.98002324380119680E+05   6.98002891147724353E+05
             6.98003268565508653E+05   6.98003458378734300E+05   6.98003461733898497E+05   6.98003280879459810E+05   6.98002919253582368E+05
             6.98002381110219634E+05   6.98001671150035691E+05   6.98000794344009482E+05   6.97999756232634187E+05   6.97998563149082242E+05
             6.97997222197913565E+05   6.97995740912034526E+05   6.97994126866511884E+05   6.97992387606570381E+05   6.97990530545095215E+05
             6.97988562915122951E+05   6.97986492045057938E+05   6.97984325682150549E+05   6.97982072128422093E+05   6.97979740600607591E+05
             6.97977340149026946E+05   6.97974879058126360E+05   6.97972365103140008E+05   6.97969806001253659E+05   6.97967209555332083E+05
             6.97964583318072371E+05   6.97961934261888731E+05   6.97959268533806084E+05   6.97956591000180924E+05   6.97953906067496748E+05
             6.97951219127658289E+05   6.97948536377156852E+05   6.97945864392782561E+05   6.97943209950669552E+05   6.97940579886570224E+05
             6.97937981657902244E+05   6.97935423686736380E+05   6.97932915732571622E+05   6.97930467741163098E+05   6.97928089160536998E+05
             6.97925789216455305E+05   6.97923577055756585E+05   6.97921461668554111E+05   6.97919451886082417E+05   6.97917556067468831E+05
             6.97915781548770610E+05   6.97914134166650707E+05   6.97912617646391504E+05
 ETA=   15   0.00000000000000000E+00   0.00000000000000000E+00   0.00000000000000000E+00   0.00000000000000000E+00   6.97917917926347931E+05
             6.97922009514583624E+05   6.97925781426736736E+05   6.97929245316071785E+05   6.97932412824843661E+05   6.97935295668953215E+05
             6.97937905659680604E+05   6.97940254693599185E+05   6.97942354460855015E+05   6.97944215997441090E+05   6.97945849570425693E+05
             6.97947264602338662E+05   6.97948469804325607E+05   6.97949473272695206E+05   6.97950282317396137E+05   6.97950902791461209E+05
             6.97951338217038428E+05   6.97951589594955673E+05   6.97951657427417813E+05   6.97951543884793529E+05   6.97951252791491919E+05
             6.97950788889405201E+05   6.97950157130501932E+05   6.97949362599071465E+05   6.97948411000390421E+05   6.97947309021017165E+05
             6.97946064191251760E+05   6.97944684281322523E+05   6.97943176820258610E+05   6.97941549171965336E+05   6.97939808606758248E+05
             6.97937962296693237E+05   6.97936017517122440E+05   6.97933982171045849E+05   6.97931865017383010E+05   6.97929675878266571E+05
             6.97927424226583913E+05   6.97925118215707014E+05   6.97922765199739253E+05   6.97920372492627939E+05   6.97917947757774498E+05
             6.97915498537792009E+05   6.97913031838609255E+05   6.97910553886474809E+05   6.97908069674339145E+05   6.97905583692535525E+05
             6.97903101393372752E+05   6.97900629069423187E+05   6.97898173417584738E+05   6.97895741403369815E+05   6.97893340070697130E+05
             6.97890977313887328E+05   6.97888662334194058E+05   6.97886405762027716E+05   6.97884218093540170E+05   6.97882108596356702E+05
             6.97880085955524119E+05   6.97878158814212307E+05   6.97876335943442769E+05   6.97874626221308368E+05   6.97873038422962651E+05
             6.97871580523116398E+05   6.97870258906917763E+05   6.97869077385237440E+05
 ETA=   16   0.00000000000000000E+00   0.00000000000000000E+00   0.00000000000000000E+00   6.97861403181242873E+05   6.97865816566575784E+05
             6.97869903417475638E+05   6.97873675152104814E+05   6.97877143180944258E+05   6.97880318897232879E+05   6.97883213773908676E+05
             6.97885839454852627E+05   6.97888207791150315E+05   6.97890330538826063E+05   6.97892218782057869E+05   6.97893882732216269E+05
             6.97895331754261511E+05   6.97896574633310083E+05   6.97897619745120523E+05   6.97898474760186393E+05   6.97899145632843254E+05
             6.97899635519327014E+05   6.97899944764980464E+05   6.97900073448268697E+05   6.97900023873182363E+05   6.97899800427865819E+05
             6.97899408438781160E+05   6.97898853115508682E+05   6.97898139524551225E+05   6.97897273328740266E+05   6.97896261359184398E+05
             6.97895111468127463E+05   6.97893831737138098E+05   6.97892429833848844E+05   6.97890913137123920E+05   6.97889288897734252E+05
             6.97887564228332951E+05   6.97885746281272266E+05   6.97883842895144713E+05   6.97881862951470073E+05   6.97879816455578897E+05
             6.97877713100022520E+05   6.97875561092613381E+05   6.97873367667134502E+05   6.97871139938351465E+05   6.97868885452106013E+05
             6.97866611794393859E+05   6.97864326070370502E+05   6.97862034559893655E+05   6.97859742303693900E+05   6.97857453882546746E+05
             6.97855174933033995E+05   6.97852912083776901E+05   6.97850672413633903E+05   6.97848463143535075E+05   6.97846291449638433E+05
             6.97844165398486773E+05   6.97842094567245920E+05   6.97840089974474628E+05   6.97838162506715278E+05   6.97836321645598393E+05
             6.97834576121189515E+05   6.97832934525767458E+05   6.97831405469503603E+05   6.97829997518457938E+05   6.97828719179182430E+05
             6.97827578412183677E+05   6.97826581788376090E+05   6.97825733370292699E+05
 ETA=   17   0.00000000000000000E+00   0.00000000000000000E+00   0.00000000000000000E+00   6.97809600049227593E+05   6.97813999715668266E+05
             6.97818078032893478E+05   6.97821846142604249E+05   6.97825315158723737E+05   6.97828496174819767E+05   6.97831400346508250E+05
             6.97834039027544786E+05   6.97836423890344682E+05   6.97838566718213144E+05   6.97840478658897919E+05   6.97842169873606763E+05
             6.97843649642237462E+05   6.97844926788012846E+05   6.97846009978366317E+05   6.97846907315410092E+05   6.97847624962744303E+05
             6.97848165809088969E+05   6.97848529559425311E+05   6.97848715904272394E+05   6.97848727396831033E+05   6.97848569052936509E+05
             6.97848246781823575E+05   6.97847766072753118E+05   6.97847132017638418E+05   6.97846350199489039E+05   6.97845427443813300E+05
             6.97844371797771892E+05   6.97843191639211262E+05   6.97841894830474746E+05   6.97840488817874575E+05   6.97838980849892134E+05
             6.97837378026485909E+05   6.97835687433917192E+05   6.97833916745185619E+05   6.97832074685928761E+05   6.97830171103479341E+05
             6.97828215693589998E+05   6.97826216741762706E+05   6.97824181487686234E+05   6.97822116980055929E+05   6.97820030819318723E+05
             6.97817930961418198E+05   6.97815824862105772E+05   6.97813718843306648E+05   6.97811617751477752E+05   6.97809526015284820E+05
             6.97807449498728616E+05   6.97805395436095423E+05   6.97803371544602909E+05   6.97801385428515030E+05   6.97799444481460145E+05
             6.97797556790083880E+05   6.97795731912924559E+05   6.97793980828991975E+05   6.97792314589668415E+05   6.97790743008632096E+05
             6.97789275055839913E+05   6.97787919395679026E+05   6.97786684609212214E+05   6.97785579055785085E+05   6.97784610769800958E+05
             6.97783787263155798E+05   6.97783114989399328E+05   6.97782598320318735E+05
 ETA=   18   0.00000000000000000E+00   0.00000000000000000E+00   0.00000000000000000E+00   6.97758088016757509E+05   6.97762470138671808E+05
             6.97766536435535643E+05   6.97770297749613645E+05   6.97773764853619388E+05   6.97776948484674562E+05   6.97779859418832813E+05
             6.97782508661282598E+05   6.97784907648958033E+05   6.97787068119192729E+05   6.97789001205057953E+05   6.97790716960296151E+05
             6.97792224508953164E+05   6.97793532659921329E+05   6.97794650364421657E+05   6.97795586248694570E+05   6.97796346864028834E+05
             6.97796935060198070E+05   6.97797350059004384E+05   6.97797591196631780E+05   6.97797661215879023E+05   6.97797565705655375E+05
             6.97797311178692733E+05   6.97796903460137197E+05   6.97796347718499834E+05   6.97795649464772549E+05   6.97794815462127677E+05
             6.97793853838206269E+05   6.97792773163970094E+05   6.97791581445305841E+05   6.97790286165169906E+05   6.97788894542023889E+05
             6.97787413663388230E+05   6.97785850593735115E+05   6.97784212858553161E+05   6.97782508893388091E+05   6.97780748174692155E+05
             6.97778940235509654E+05   6.97777093362124288E+05   6.97775214800384012E+05   6.97773311659174971E+05   6.97771391832555062E+05
             6.97769463933011168E+05   6.97767536018560990E+05   6.97765614527863567E+05   6.97763703951797448E+05   6.97761808383400552E+05
             6.97759933934109169E+05   6.97758088578923023E+05   6.97756280851153424E+05   6.97754518863702775E+05   6.97752810285244719E+05
             6.97751163134320639E+05   6.97749586636628839E+05   6.97748091365894070E+05   6.97746688270815182E+05   6.97745387359148939E+05
             6.97744197827772121E+05   6.97743128515924793E+05   6.97742188078882173E+05   6.97741384776390740E+05   6.97740726279709255E+05
             6.97740219576648436E+05   6.97739870821217308E+05   6.97739684639396379E+05
 ETA=   19   0.00000000000000000E+00   0.00000000000000000E+00   6.97702187125971192E+05   6.97706868953187368E+05   6.97711230088455253E+05
             6.97715281183277839E+05   6.97719032754045213E+05   6.97722495224129409E+05   6.97725678963518585E+05   6.97728594343339559E+05
             6.97731252004032140E+05   6.97733663119507255E+05   6.97735839286320959E+05   6.97737791500770254E+05   6.97739529623197392E+05
             6.97741062533471268E+05   6.97742398890530108E+05   6.97743547771558166E+05   6.97744518338138238E+05   6.97745317751348135E+05
             6.97745949232238461E+05   6.97746411976732663E+05   6.97746705209692009E+05   6.97746831736611668E+05   6.97746797434728942E+05
             6.97746609216658166E+05   6.97746273203865159E+05   6.97745794774918002E+05   6.97745179504219675E+05   6.97744434111987241E+05
             6.97743566693749861E+05   6.97742585840292857E+05   6.97741499572910601E+05   6.97740315317620523E+05   6.97739040214846726E+05
             6.97737681337380433E+05   6.97736245706357411E+05   6.97734740701959236E+05   6.97733174497414730E+05   6.97731556132842903E+05
             6.97729894825125346E+05   6.97728198817992001E+05   6.97726475485751638E+05   6.97724732155965059E+05   6.97722977066308376E+05
             6.97721219496410689E+05   6.97719468190672458E+05   6.97717729838382802E+05   6.97716008805008023E+05   6.97714309079716681E+05
             6.97712637083751848E+05   6.97711001449025236E+05   6.97709411451196880E+05   6.97707875618391088E+05   6.97706401780433720E+05
             6.97704997804647894E+05   6.97703672485273331E+05   6.97702435765815317E+05   6.97701298175020027E+05   6.97700269726276631E+05
             6.97699359752491233E+05   6.97698577229551855E+05   6.97697930939276936E+05   6.97697429177985294E+05   6.97697079489012831E+05
             6.97696888595969533E+05   6.97696862413920113E+05   6.97697005618102849E+05
 ETA=   20   0.00000000000000000E+00   0.00000000000000000E+00   6.97651291957510286E+05   6.97655943367593223E+05   6.97660280449064914E+05
             6.97664313488607178E+05   6.97668052640007460E+05   6.97671507983351010E+05   6.97674689552862430E+05   6.97677607332727057E+05
             6.97680271583701251E+05   6.97682693141003954E+05   6.97684883322526934E+05   6.97686852837369661E+05   6.97688611296677846E+05
             6.97690167406652472E+05   6.97691529692758806E+05   6.97692707132052747E+05   6.97693709102937952E+05   6.97694543299014680E+05
             6.97695213710678509E+05   6.97695720172211295E+05   6.97696062329153880E+05   6.97696243154882221E+05   6.97696268567153951E+05
             6.97696145567176514E+05   6.97695880390146165E+05   6.97695478633883642E+05   6.97694946017773938E+05   6.97694289218488149E+05
             6.97693516198698315E+05   6.97692635410289164E+05   6.97691654772225302E+05   6.97690581606395077E+05   6.97689422971255961E+05
             6.97688185944758239E+05   6.97686877521689399E+05   6.97685504976277472E+05   6.97684076267941040E+05   6.97682599975203397E+05
             6.97681084917552420E+05   6.97679539310381166E+05   6.97677970771662658E+05   6.97676386900194688E+05   6.97674796112344717E+05
             6.97673208039530902E+05   6.97671631944831111E+05   6.97670075036529219E+05   6.97668542239385890E+05   6.97667037992646801E+05
             6.97665569091034005E+05   6.97664144514758489E+05   6.97662773854668252E+05   6.97661465759490500E+05   6.97660228174155462E+05
             6.97659068906574277E+05   6.97657996389185661E+05   6.97657019886708702E+05   6.97656149306656560E+05   6.97655394506315701E+05
             6.97654764870480169E+05   6.97654269462479628E+05   6.97653917188577005E+05   6.97653716438135598E+05   6.97653674768409808E+05
             6.97653798859333503E+05   6.97654094494165271E+05   6.97654566230706056E+05
 ETA=   21   0.00000000000000000E+00   0.00000000000000000E+00   6.97600693225020310E+05   6.97605311210332089E+05   6.97609621467464720E+05
             6.97613633872582112E+05   6.97617358201765106E+05   6.97620804195258184E+05   6.97623981567457202E+05   6.97626899963046424E+05
             6.97629569264036603E+05   6.97631999854595168E+05   6.97634202610663720E+05   6.97636187816218007E+05   6.97637964816619526E+05
             6.97639542238990660E+05   6.97640928537913016E+05   6.97642132433690829E+05   6.97643163052024553E+05   6.97644028322529979E+05
             6.97644733298463514E+05   6.97645279219569173E+05   6.97645666879646131E+05   6.97645899673752021E+05   6.97645983321564971E+05
             6.97645924518033164E+05   6.97645729450783692E+05   6.97645403895353666E+05   6.97644953732539783E+05   6.97644385566282319E+05
             6.97643707109562121E+05   6.97642926532064797E+05   6.97642051551311277E+05   6.97641089403168298E+05   6.97640047118118731E+05
             6.97638931799827842E+05   6.97637750488338992E+05   6.97636510397027945E+05   6.97635219219535938E+05   6.97633885054454789E+05
             6.97632516314815846E+05   6.97631121175853536E+05   6.97629707550098537E+05   6.97628283378456021E+05   6.97626857128315722E+05
             6.97625438276298461E+05   6.97624036285895854E+05   6.97622659227421042E+05   6.97621313370118267E+05   6.97620004237454850E+05
             6.97618739067750284E+05   6.97617526745163254E+05   6.97616376635107910E+05   6.97615297272036900E+05   6.97614296666857903E+05
             6.97613382666158723E+05   6.97612563457046635E+05   6.97611847739426768E+05   6.97611244789876742E+05   6.97610764125902322E+05
             6.97610415082881344E+05   6.97610206838376238E+05   6.97610148400041624E+05   6.97610248236181797E+05   6.97610514019416762E+05
             6.97610952490066062E+05   6.97611569341544644E+05   6.97612368977790349E+05
 ETA=   22   0.00000000000000000E+00   0.00000000000000000E+00   6.97550390252938843E+05   6.97554972120449878E+05   6.97559253065709490E+05
             6.97563242521097185E+05   6.97566949897044920E+05   6.97570384605171392E+05   6.97573556032448891E+05   6.97576473536240519E+05
             6.97579146625963855E+05   6.97581585108480183E+05   6.97583799245959148E+05   6.97585798765439074E+05   6.97587592744740541E+05
             6.97589189798747539E+05   6.97590598384391749E+05   6.97591826970347203E+05   6.97592884022322251E+05   6.97593777263779193E+05
             6.97594512808727217E+05   6.97595094091999461E+05   6.97595523924288107E+05   6.97595806342927739E+05   6.97595946646051249E+05
             6.97595950909764622E+05   6.97595825238785590E+05   6.97595575521836057E+05   6.97595207729230286E+05   6.97594728320284048E+05
             6.97594144614591496E+05   6.97593464359708247E+05   6.97592695011542877E+05   6.97591843819967587E+05   6.97590917899924680E+05
             6.97589924376688665E+05   6.97588870368598495E+05   6.97587763033796684E+05   6.97586609728729120E+05   6.97585418061419274E+05
             6.97584196042947937E+05   6.97582951803219388E+05   6.97581693501861650E+05   6.97580429350927821E+05   6.97579167821387877E+05
             6.97577917981558247E+05   6.97576689326872816E+05   6.97575491014013183E+05   6.97574331300795311E+05   6.97573217369691469E+05
             6.97572156809129287E+05   6.97571157839498832E+05   6.97570229061628575E+05   6.97569378817551886E+05   6.97568615226314054E+05
             6.97567946289311978E+05   6.97567380113972467E+05   6.97566925024116528E+05   6.97566589752759086E+05   6.97566383370651281E+05
             6.97566315035304520E+05   6.97566393916663132E+05   6.97566629050275544E+05   6.97567029031007551E+05   6.97567601739766076E+05
             6.97568354067140375E+05   6.97569291679782677E+05   6.97570418845528504E+05
 ETA=   23   0.00000000000000000E+00   6.97495535954934196E+05   6.97500381976530887E+05   6.97504925321952789E+05   6.97509174786979100E+05
             6.97513139304012409E+05   6.97516827915741014E+05   6.97520249709988944E+05   6.97523413743357291E+05   6.97526329147557495E+05
             6.97529005073828972E+05   6.97531450633775443E+05   6.97533675307045225E+05   6.97535688117671642E+05   6.97537497829960892E+05
             6.97539113075619331E+05   6.97540542387681897E+05   6.97541794066837174E+05   6.97542875683365739E+05   6.97543794397183810E+05
             6.97544557244407362E+05   6.97545170380058000E+05   6.97545639351258869E+05   6.97545969086619094E+05   6.97546164308082429E+05
             6.97546230278681149E+05   6.97546173056733096E+05   6.97545998660782352E+05   6.97545713112157187E+05   6.97545322635193123E+05
             6.97544834003310534E+05   6.97544254391078022E+05   6.97543590902498225E+05   6.97542850848564878E+05   6.97542041506861802E+05
             6.97541170016139396E+05   6.97540243589058868E+05   6.97539269359777216E+05   6.97538254331915989E+05   6.97537205592509941E+05
             6.97536130722192232E+05   6.97535037808726309E+05   6.97533935244358960E+05   6.97532831494601211E+05   6.97531735084317508E+05
             6.97530654599952046E+05   6.97529599356880528E+05   6.97528579490415985E+05   6.97527605469887727E+05   6.97526686487093684E+05
             6.97525830522856326E+05   6.97525045034377603E+05   6.97524337726686848E+05   6.97523716705515981E+05   6.97523190109457122E+05
             6.97522766029419843E+05   6.97522452541193110E+05   6.97522257712544408E+05   6.97522189822863205E+05   6.97522257512878045E+05
             6.97522469749646261E+05   6.97522835616766592E+05   6.97523364095702535E+05   6.97524063880256028E+05   6.97524943039972568E+05
             6.97526008654339705E+05   6.97527266424578615E+05   6.97528720496055437E+05
 ETA=   24   0.00000000000000000E+00   6.97445869696829002E+05   6.97450666945831385E+05   6.97455169600120862E+05   6.97459385714571457E+05
             6.97463323639569688E+05   6.97466992007113877E+05   6.97470399583761813E+05   6.97473555145010352E+05   6.97476467648228747E+05
             6.97479145866623847E+05   6.97481598110511899E+05   6.97483832866042503E+05   6.97485858262061374E+05   6.97487682682452491E+05
             6.97489314847227884E+05   6.97490763478084467E+05   6.97492036706475774E+05   6.97493141161721200E+05   6.97494083425237564E+05
             6.97494871437308495E+05   6.97495513976660557E+05   6.97496019424511469E+05   6.97496394035849487E+05   6.97496642205299111E+05
             6.97496768348812126E+05   6.97496778378934483E+05   6.97496678543269052E+05   6.97496475003230618E+05   6.97496173687573988E+05
             6.97495780655339011E+05   6.97495302315013716E+05   6.97494745284764562E+05   6.97494116867178353E+05   6.97493424544180278E+05
             6.97492675540625118E+05   6.97491877159271855E+05   6.97491036491676001E+05   6.97490160173296230E+05   6.97489254747225437E+05
             6.97488327360640746E+05   6.97487386064664111E+05   6.97486439530885429E+05   6.97485496530350181E+05   6.97484565643310547E+05
             6.97483655013134587E+05   6.97482773714365554E+05   6.97481932676645694E+05   6.97481144262807211E+05   6.97480419652009965E+05
             6.97479767575219390E+05   6.97479195046295412E+05   6.97478708921902580E+05   6.97478316943166312E+05   6.97478027196051553E+05
             6.97477847791688167E+05   6.97477786694713170E+05   6.97477851710265735E+05   6.97478050759172067E+05   6.97478392127713538E+05
             6.97478884572771145E+05   6.97479537062726798E+05   6.97480358492714819E+05   6.97481357602631673E+05   6.97482542618165491E+05
             6.97483920772377518E+05   6.97485497829615488E+05   6.97487277931679040E+05
 ETA=   25   0.00000000000000000E+00   6.97396497245912207E+05   6.97401243295272812E+05   6.97405703209871892E+05   6.97409884274426266E+05
             6.97413794228064129E+05   6.97417441246946808E+05   6.97420833753160783E+05   6.97423980268044514E+05   6.97426889522036072E+05
             6.97429569863814395E+05   6.97432028817636659E+05   6.97434273616554332E+05   6.97436311198555981E+05   6.97438149457639316E+05
             6.97439797210363671E+05   6.97441263451585197E+05   6.97442556284758844E+05   6.97443681981530623E+05   6.97444646973897587E+05
             6.97445459858045680E+05   6.97446131222967640E+05   6.97446671560287476E+05   6.97447088536327472E+05   6.97447386978234979E+05
             6.97447571128973155E+05   6.97447646791397594E+05   6.97447620486460510E+05   6.97447498585420894E+05   6.97447286691833171E+05
             6.97446989922640030E+05   6.97446613681746298E+05   6.97446164061809424E+05   6.97445648229459999E+05   6.97445073785449145E+05
             6.97444448090869002E+05   6.97443778483863687E+05   6.97443071973720216E+05   6.97442334885505494E+05   6.97441573212654679E+05
             6.97440793637400842E+05   6.97440004160758574E+05   6.97439213797123637E+05   6.97438431746115908E+05   6.97437666752256569E+05
             6.97436926791999605E+05   6.97436220726645901E+05   6.97435559858548106E+05   6.97434957704154076E+05   6.97434426973852096E+05
             6.97433977454569540E+05   6.97433616450220463E+05   6.97433350516846403E+05   6.97433187037762604E+05   6.97433133904999937E+05
             6.97433199046296533E+05   6.97433390107746702E+05   6.97433714512248989E+05   6.97434179852368659E+05   6.97434794203590485E+05
             6.97435566202218877E+05   6.97436504759054747E+05   6.97437618701881962E+05   6.97438916710022721E+05   6.97440407033258351E+05
             6.97442096969264443E+05   6.97443992343492573E+05   6.97446097390736220E+05
 ETA=   26   0.00000000000000000E+00   6.97347416364273173E+05   6.97352108876020880E+05   6.97356524025926599E+05   6.97360668357595685E+05
             6.97364549044053419E+05   6.97368173800725257E+05   6.97371550673747901E+05   6.97374687909905915E+05   6.97377593913257704E+05
             6.97380276527533541E+05   6.97382742494917242E+05   6.97384997579804040E+05   6.97387047275916091E+05   6.97388898828932783E+05
             6.97390561009465368E+05   6.97392043052828056E+05   6.97393353372911224E+05   6.97394498938905657E+05   6.97395486847880064E+05
             6.97396325982949231E+05   6.97397027406672598E+05   6.97397602425324731E+05   6.97398059798191302E+05   6.97398405658234144E+05
             6.97398645238922792E+05   6.97398784647096647E+05   6.97398830697012017E+05   6.97398789920675918E+05   6.97398667548684170E+05
             6.97398467562236474E+05   6.97398194169540773E+05   6.97397852949014166E+05   6.97397450842888444E+05   6.97396995420584572E+05
             6.97396494142680313E+05   6.97395954321888159E+05   6.97395382846092922E+05   6.97394785815941636E+05   6.97394168722454691E+05
             6.97393537750951480E+05   6.97392900781114004E+05   6.97392267080284539E+05   6.97391646257385495E+05   6.97391047387597384E+05
             6.97390478816721006E+05   6.97389949553195038E+05   6.97389470901427791E+05   6.97389056650321581E+05   6.97388720288925339E+05
             6.97388472546035773E+05   6.97388321548800333E+05   6.97388274256367702E+05   6.97388337975846953E+05   6.97388520411300007E+05
             6.97388829204207053E+05   6.97389271583155962E+05   6.97389854522728478E+05   6.97390585284224362E+05   6.97391471812351840E+05
             6.97392522638437571E+05   6.97393746566469432E+05   6.97395152376793558E+05   6.97396748690223787E+05   6.97398543692479143E+05
             6.97400544689601869E+05   6.97402757609027438E+05   6.97405186856221990E+05
 ETA=   27   0.00000000000000000E+00   6.97298624820073484E+05   6.97303261648977525E+05   6.97307630081246374E+05   6.97311735990687739E+05
             6.97315586036004242E+05   6.97319187493841164E+05   6.97322548026341479E+05   6.97325675590643310E+05   6.97328578264840296E+05
             6.97331263297288329E+05   6.97333736475525307E+05   6.97336002025232883E+05   6.97338064014206990E+05   6.97339928859581356E+05
             6.97341605011658161E+05   6.97343101894535939E+05   6.97344428619340993E+05   6.97345593588624848E+05   6.97346605204399559E+05
             6.97347472572784522E+05   6.97348206073980778E+05   6.97348816598627367E+05   6.97349313695639488E+05   6.97349705282056355E+05
             6.97349998391707428E+05   6.97350200065516401E+05   6.97350317560630268E+05   6.97350357394164777E+05   6.97350324287069263E+05
             6.97350221099566203E+05   6.97350050857161870E+05   6.97349818557644030E+05   6.97349530888150679E+05   6.97349195356367272E+05
             6.97348819463473861E+05   6.97348410478043836E+05   6.97347975142393494E+05   6.97347519329867093E+05   6.97347048100136104E+05
             6.97346567174629192E+05   6.97346084193537245E+05   6.97345608456849121E+05   6.97345149871862493E+05   6.97344717976887128E+05
             6.97344321845476283E+05   6.97343971025973558E+05   6.97343676796580665E+05   6.97343452549379319E+05   6.97343311734495219E+05
             6.97343265691211214E+05   6.97343323570565670E+05   6.97343493245061021E+05   6.97343782359450590E+05   6.97344198558736127E+05
             6.97344749202069244E+05   6.97345441160188289E+05   6.97346281037799898E+05   6.97347275784225087E+05   6.97348433183461777E+05
             6.97349761655835318E+05   6.97351269907965208E+05   6.97352966675340547E+05   6.97354860516691464E+05   6.97356959519282565E+05
             6.97359270939199370E+05   6.97361800806868006E+05   6.97364553775591427E+05
 ETA=   28   0.00000000000000000E+00   6.97250120738326572E+05   6.97254700043471297E+05   6.97259019938118523E+05   6.97263085703877732E+05
             6.97266903573316988E+05   6.97270480454438599E+05   6.97273823642903590E+05   6.97276940740712336E+05   6.97279839419093798E+05
             6.97282526265486144E+05   6.97285006096759229E+05   6.97287281691650744E+05   6.97289355926301447E+05   6.97291234519709251E+05
             6.97292925561855896E+05   6.97294438471174217E+05   6.97295782871398493E+05   6.97296968562836177E+05   6.97298005286482628E+05
             6.97298902470472851E+05   6.97299669751512120E+05   6.97300317353117396E+05   6.97300855375910294E+05   6.97301293438966037E+05
             6.97301640387473861E+05   6.97301904259679141E+05   6.97302092816639459E+05   6.97302212573456345E+05   6.97302267802650575E+05
             6.97302260430522496E+05   6.97302192549156956E+05   6.97302068720102543E+05   6.97301895399013534E+05   6.97301679981927969E+05
             6.97301429916685564E+05   6.97301152411242132E+05   6.97300854112242116E+05   6.97300540726427105E+05   6.97300216971648973E+05
             6.97299888189392514E+05   6.97299561721510836E+05   6.97299246632594266E+05   6.97298952789372415E+05   6.97298690011156024E+05
             6.97298468146608328E+05   6.97298297511419398E+05   6.97298189604910905E+05   6.97298157387156039E+05   6.97298213842595811E+05
             6.97298370468376903E+05   6.97298637182482169E+05   6.97299022724734736E+05   6.97299535260427045E+05   6.97300182709442219E+05
             6.97300972494532121E+05   6.97301911402422702E+05   6.97303005864165840E+05   6.97304262602581875E+05   6.97305689159543719E+05
             6.97307293715944630E+05   6.97309084842048003E+05   6.97311071266399114E+05   6.97313261557688005E+05   6.97315663763422403E+05
             6.97318285055529443E+05   6.97321131516039837E+05   6.97324208075789385E+05
 ETA=   29   0.00000000000000000E+00   6.97201901884841849E+05   6.97206422199828550E+05   6.97210692136892350E+05   6.97214716429730062E+05
             6.97218500907815411E+05   6.97222052084331284E+05   6.97225376812174451E+05   6.97228482211759430E+05   6.97231375409631291E+05
             6.97234062365348917E+05   6.97236547249990748E+05   6.97238831772932899E+05   6.97240918005932472E+05   6.97242811268505175E+05
             6.97244519404758350E+05   6.97246051548151416E+05   6.97247417151486967E+05   6.97248626630145824E+05   6.97249690547029488E+05
             6.97250618826968363E+05   6.97251421316705178E+05   6.97252108382253442E+05   6.97252690533999586E+05   6.97253178415774135E+05
             6.97253581930180080E+05   6.97253909581494052E+05   6.97254169499481446E+05   6.97254368431105395E+05   6.97254510620266199E+05
             6.97254597478372627E+05   6.97254630547399633E+05   6.97254614222655655E+05   6.97254554745250498E+05   6.97254459275682457E+05
             6.97254335096497205E+05   6.97254189283873769E+05   6.97254028407774749E+05   6.97253858169706538E+05   6.97253683126210934E+05
             6.97253508331111982E+05   6.97253340842045611E+05   6.97253189419675269E+05   6.97253063660947606E+05   6.97252973267191905E+05
             6.97252928483554977E+05   6.97252940254745423E+05   6.97253020442768116E+05   6.97253181954098050E+05   6.97253437507154071E+05
             6.97253798521088553E+05   6.97254275294623803E+05   6.97254877166067599E+05   6.97255612724682782E+05   6.97256490241898224E+05
             6.97257517459383816E+05   6.97258701386019588E+05   6.97260048492934904E+05   6.97261565354995430E+05   6.97263259282641229E+05
             6.97265138219421497E+05   6.97267210611626739E+05   6.97269485218454734E+05   6.97271970651298179E+05   6.97274674943505903E+05
             6.97277605250383844E+05   6.97280767739697360E+05   6.97284167522883741E+05
 ETA=   30   0.00000000000000000E+00   6.97153964068118250E+05   6.97158424252333585E+05   6.97162643238490913E+05   6.97166625266254763E+05
             6.97170375663338229E+05   6.97173900417082361E+05   6.97177205804305384E+05   6.97180298313126783E+05   6.97183184378676815E+05
             6.97185869400007068E+05   6.97188357275885181E+05   6.97190649354897207E+05   6.97192747520128032E+05   6.97194656815456226E+05
             6.97196384732763865E+05   6.97197939924449311E+05   6.97199331239566207E+05   6.97200568642296363E+05   6.97201662727809395E+05
             6.97202624156340375E+05   6.97203464026557747E+05   6.97204193827858195E+05   6.97204824528337223E+05   6.97205366887661978E+05
             6.97205830845749821E+05   6.97206224935895531E+05   6.97206557383631822E+05   6.97206835207855911E+05   6.97207063089330564E+05
             6.97207242687015561E+05   6.97207375556404120E+05   6.97207466007542331E+05   6.97207520007796935E+05   6.97207544373977813E+05
             6.97207546104332199E+05   6.97207532040931401E+05   6.97207508699509432E+05   6.97207481959445635E+05   6.97207456528811017E+05
             6.97207437388572027E+05   6.97207431306373561E+05   6.97207446610165411E+05   6.97207492462360649E+05   6.97207578223542776E+05
             6.97207714063947205E+05   6.97207911160638439E+05   6.97208181703690789E+05   6.97208538883947884E+05   6.97208995562659809E+05
             6.97209563138688798E+05   6.97210251951388200E+05   6.97211071557912044E+05   6.97212030841441127E+05   6.97213138426825521E+05
             6.97214402487926069E+05   6.97215830455960706E+05   6.97217429026972502E+05   6.97219204700500588E+05   6.97221164549930370E+05
             6.97223316307441331E+05   6.97225668331276625E+05   6.97228229407120496E+05   6.97231008224026882E+05   6.97234012939298525E+05
             6.97237250890321331E+05   6.97240728421226144E+05   6.97244450686023687E+05
 ETA=   31   0.00000000000000000E+00   6.97106301018617349E+05   6.97110700177489663E+05   6.97114867644227226E+05   6.97118807331325603E+05
             6.97122523865323863E+05   6.97126022330907872E+05   6.97129308102707379E+05   6.97132386915173382E+05   6.97135264443867840E+05
             6.97137945645478670E+05   6.97140434509140556E+05   6.97142732982878690E+05   6.97144843519870774E+05   6.97146770802278887E+05
             6.97148521462840610E+05   6.97150103243993246E+05   6.97151524350341759E+05   6.97152793901863508E+05   6.97153922100339667E+05
             6.97154920354380738E+05   6.97155801553300465E+05   6.97156578748693573E+05   6.97157263189206831E+05   6.97157865000464255E+05
             6.97158393388726749E+05   6.97158856757632806E+05   6.97159263265441055E+05   6.97159620161697967E+05   6.97159932892517303E+05
             6.97160204279658850E+05   6.97160436639853404E+05   6.97160634112382540E+05   6.97160802064163028E+05   6.97160946706847870E+05
             6.97161074711865047E+05   6.97161192667751689E+05   6.97161307074660086E+05   6.97161424133168417E+05   6.97161549096342991E+05
             6.97161687189640943E+05   6.97161844836244127E+05   6.97162029763325118E+05   6.97162250601999112E+05   6.97162516390197328E+05
             6.97162836942448514E+05   6.97163223192447447E+05   6.97163687363888253E+05   6.97164242928066873E+05   6.97164903053867514E+05
             6.97165679318092763E+05   6.97166582180545083E+05   6.97167621324543492E+05   6.97168805816546432E+05   6.97170144497555331E+05
             6.97171645883812453E+05   6.97173317868280341E+05   6.97175167496697395E+05   6.97177201293548103E+05   6.97179426111166482E+05
             6.97181849458964076E+05   6.97184479570037453E+05   6.97187325204636902E+05   6.97190395216654753E+05   6.97193698161274195E+05
             6.97197241872127168E+05   6.97201033037531190E+05   6.97205076786443591E+05
 ETA=   32   0.00000000000000000E+00   6.97058904583910829E+05   6.97063242409262341E+05   6.97067358131396468E+05   6.97071255526015884E+05
             6.97074938503097161E+05   6.97078411061584949E+05   6.97081677535164985E+05   6.97084742846344016E+05   6.97087611649102764E+05
             6.97090288285304327E+05   6.97092777015207685E+05   6.97095081168891047E+05   6.97097204429568024E+05   6.97099151239073835E+05
             6.97100927089689998E+05   6.97102538561197114E+05   6.97103993306721211E+05   6.97105299702815479E+05   6.97106467416024650E+05
             6.97107508178771590E+05   6.97108436413655872E+05   6.97109266484217951E+05   6.97110009652101551E+05   6.97110675355527783E+05
             6.97111272096827975E+05   6.97111808132338570E+05   6.97112291246570763E+05   6.97112728591004037E+05   6.97113126421356341E+05
             6.97113489412380266E+05   6.97113821409418248E+05   6.97114126581048244E+05   6.97114409503794275E+05   6.97114675571867847E+05
             6.97114931117457338E+05   6.97115182357246638E+05   6.97115435622820747E+05   6.97115697443599114E+05   6.97115973947997787E+05
             6.97116270990248071E+05   6.97116594712476828E+05   6.97116952110466547E+05   6.97117351138989558E+05   6.97117800519732642E+05
             6.97118309757850599E+05   6.97118889413412777E+05   6.97119551406095037E+05   6.97120309165389161E+05   6.97121176027452922E+05
             6.97122163782753632E+05   6.97123283124562236E+05   6.97124543910207576E+05   6.97125955372196739E+05   6.97127526538149570E+05
             6.97129266191706876E+05   6.97131182582983049E+05   6.97133283081970992E+05   6.97135574362415820E+05   6.97138063203269267E+05
             6.97140756964158849E+05   6.97143663776012487E+05   6.97146792375001009E+05   6.97150151778270374E+05   6.97153750963414437E+05
             6.97157598332904628E+05   6.97161700998394634E+05   6.97166064096867573E+05
 ETA=   33   0.00000000000000000E+00   0.00000000000000000E+00   6.97016041147844167E+05   6.97020105575982248E+05   6.97023960968942498E+05
             6.97027610711675370E+05   6.97031057799759554E+05   6.97034305552204256E+05   6.97037357950823032E+05   6.97040218454925576E+05
             6.97042890790613252E+05   6.97045379592368379E+05   6.97047689700560062E+05   6.97049826265430660E+05   6.97051793933826615E+05
             6.97053597213016357E+05   6.97055241483698715E+05   6.97056733743133605E+05   6.97058081866696710E+05   6.97059295237249113E+05
             6.97060385563879623E+05   6.97061367812850745E+05   6.97062256854112144E+05   6.97063063929989003E+05   6.97063798117998522E+05
             6.97064467523465515E+05   6.97065080135905184E+05   6.97065643167953123E+05   6.97066163574019098E+05   6.97066648397418438E+05
             6.97067104187174467E+05   6.97067536640599952E+05   6.97067950499093859E+05   6.97068349767304375E+05   6.97068738966320641E+05
             6.97069123959075776E+05   6.97069510522853117E+05   6.97069904775177012E+05   6.97070313515702379E+05   6.97070743691534735E+05
             6.97071201929405564E+05   6.97071694375816849E+05   6.97072227390236687E+05   6.97072808150170138E+05   6.97073444942125003E+05
             6.97074147024682141E+05   6.97074924635483068E+05   6.97075789188613184E+05   6.97076753668299993E+05   6.97077831275086734E+05
             6.97079033961228910E+05   6.97080372738576611E+05   6.97081857740355073E+05   6.97083498392144684E+05   6.97085303876542137E+05
             6.97087283107155235E+05   6.97089444478448131E+05   6.97091795588603476E+05   6.97094343447485357E+05   6.97097095087923226E+05
             6.97100057921038708E+05   6.97103240016870783E+05   6.97106650102433981E+05   6.97110297334850067E+05   6.97114190951700322E+05
             6.97118339681360871E+05   6.97122750966624473E+05   6.97127430145015940E+05
 ETA=   34   0.00000000000000000E+00   0.00000000000000000E+00   6.96969086802406353E+05   6.96973101681923843E+05   6.96976915969989612E+05
             6.96980532622145256E+05   6.96983954106317018E+05   6.96987183202121407E+05   6.96990223093857057E+05   6.96993076338940067E+05
             6.96995746174983913E+05   6.96998237293283339E+05   6.97000555412690155E+05   6.97002706678673741E+05   6.97004696246077889E+05
             6.97006528482534806E+05   6.97008208327858942E+05   6.97009742243819172E+05   6.97011137686480768E+05   6.97012403718891204E+05
             6.97013551638962119E+05   6.97014595719553879E+05   6.97015550225741346E+05   6.97016426436204696E+05   6.97017233625079738E+05
             6.97017980031549232E+05   6.97018673479689285E+05   6.97019320781147690E+05   6.97019928701872588E+05   6.97020504717481439E+05
             6.97021056603814592E+05   6.97021591492923442E+05   6.97022115041723242E+05   6.97022631530422834E+05   6.97023145301208948E+05
             6.97023661841389956E+05   6.97024186557424138E+05   6.97024725250225514E+05   6.97025284634445212E+05   6.97025872007527854E+05
             6.97026494520640816E+05   6.97027158604579512E+05   6.97027870451789699E+05   6.97028636734701344E+05   6.97029465206966386E+05
             6.97030364694713266E+05   6.97031345001533162E+05   6.97032416981110466E+05   6.97033592970045633E+05   6.97034885799227282E+05
             6.97036307516793837E+05   6.97037869437462883E+05   6.97039582038019202E+05   6.97041455009359750E+05   6.97043497547087027E+05
             6.97045718354806071E+05   6.97048125663471874E+05   6.97050727188825607E+05   6.97053530414157081E+05   6.97056543042909470E+05
             6.97059773085147026E+05   6.97063228927538730E+05   6.97066919362614979E+05   6.97070853423661436E+05   6.97075040081184590E+05
             6.97079487882157322E+05   6.97084204378416878E+05   6.97089195282518864E+05
 ETA=   35   0.00000000000000000E+00   0.00000000000000000E+00   6.96922368421647814E+05   6.96926336932729813E+05   6.96930112350311945E+05
             6.96933697022278327E+05   6.96937093194266199E+05   6.96940303527349140E+05   6.96943330912343576E+05   6.96946177957092179E+05
             6.96948847957753809E+05   6.96951345260000322E+05   6.96953675360616413E+05   6.96955844405845972E+05   6.96957857943641953E+05
             6.96959720992791583E+05   6.96961438972607604E+05   6.96963018310446292E+05   6.96964466409270070E+05   6.96965792021493195E+05
             6.96967005610122578E+05   6.96968119714959990E+05   6.96969146995438612E+05   6.96970098509386182E+05   6.96970983885798953E+05
             6.96971811749054701E+05   6.96972590165795409E+05   6.96973326391365263E+05   6.96974027470467263E+05   6.96974700874170987E+05
             6.96975354506321601E+05   6.96975995916446438E+05   6.96976631517270114E+05   6.96977266637132620E+05   6.96977906364929164E+05
             6.96978556282612146E+05   6.96979221937947441E+05   6.96979909053765819E+05   6.96980623888717382E+05   6.96981373342478531E+05
             6.96982164489431889E+05   6.96983004009492346E+05   6.96983898333530757E+05   6.96984854075681767E+05   6.96985878577035619E+05
             6.96986980090256780E+05   6.96988167811407126E+05   6.96989452033484355E+05   6.96990844483202673E+05   6.96992357553238631E+05
             6.96994003256206866E+05   6.96995792973863659E+05   6.96997737306191120E+05   6.96999846137705725E+05   6.97002128666524310E+05
             6.97004593352037715E+05   6.97007248164874967E+05   6.97010100888682413E+05   6.97013159536986845E+05   6.97016432565065683E+05
             6.97019928676540381E+05   6.97023656705509638E+05   6.97027625628265552E+05   6.97031844413045328E+05   6.97036321717243642E+05
             6.97041065726330504E+05   6.97046083951049834E+05   6.97051382536008838E+05
 ETA=   36   0.00000000000000000E+00   0.00000000000000000E+00   0.00000000000000000E+00   6.96879796339647146E+05   6.96883535905686207E+05
             6.96887090814925963E+05   6.96890463125274167E+05   6.96893655704145785E+05   6.96896671753491391E+05   6.96899514623107039E+05
             6.96902188136699260E+05   6.96904696162212756E+05   6.96907042988183210E+05   6.96909233910725219E+05   6.96911274728666758E+05
             6.96913171510630054E+05   6.96914930827986100E+05   6.96916559707685490E+05   6.96918065856065601E+05   6.96919457682732958E+05
             6.96920744345428189E+05   6.96921936016903608E+05   6.96923043295463896E+05   6.96924076623608358E+05   6.96925045845574467E+05
             6.96925960231809178E+05   6.96926828581394162E+05   6.96927659189780708E+05   6.96928459856464760E+05   6.96929237874810118E+05
             6.96930000266420771E+05   6.96930754086772795E+05   6.96931506284415023E+05   6.96932263531181496E+05   6.96933032312375610E+05
             6.96933818916539894E+05   6.96934629417996155E+05   6.96935469694611500E+05   6.96936345470559434E+05   6.96937262669055723E+05
             6.96938227687048493E+05   6.96939247258786811E+05   6.96940328256188426E+05   6.96941477646329091E+05   6.96942702633625711E+05
             6.96944010894099367E+05   6.96945410897406982E+05   6.96946912360469811E+05   6.96948526533586672E+05   6.96950265374123468E+05
             6.96952140614125994E+05   6.96954163426589570E+05   6.96956344310084474E+05   6.96958693152531749E+05   6.96961219090741477E+05
             6.96963930472727865E+05   6.96966835179596674E+05   6.96969941093027010E+05   6.96973256581877824E+05   6.96976790573782288E+05
             6.96980552300698240E+05   6.96984551094564609E+05   6.96988796235660440E+05   6.96993296755990479E+05   6.96998061248595128E+05
             6.97003097814620123E+05   6.97008414020856610E+05   6.97014016319113667E+05
 ETA=   37   0.00000000000000000E+00   0.00000000000000000E+00   0.00000000000000000E+00   6.96833462720338954E+05   6.96837169849933824E+05
             6.96840698526929133E+05   6.96844050666877767E+05   6.96847229318051250E+05   6.96850237979206722E+05   6.96853080756554496E+05
             6.96855761956195813E+05   6.96858285003294353E+05   6.96860652974364581E+05   6.96862870310573606E+05   6.96864943034989526E+05
             6.96866878319526440E+05   6.96868683937721187E+05   6.96870367567937705E+05   6.96871937194097904E+05   6.96873400817144080E+05
             6.96874766248562955E+05   6.96876041220910614E+05   6.96877234288896085E+05   6.96878355334718828E+05   6.96879414494650322E+05
             6.96880421725693159E+05   6.96881386539133498E+05   6.96882318212795653E+05   6.96883225279146689E+05   6.96884114898324944E+05
             6.96884993182171602E+05   6.96885866583123337E+05   6.96886742450716207E+05   6.96887628671321552E+05   6.96888532984247315E+05
             6.96889462328499067E+05   6.96890423355658539E+05   6.96891422234448721E+05   6.96892464377249475E+05   6.96893554833713220E+05
             6.96894699185273261E+05   6.96895903987555532E+05   6.96897176396675175E+05   6.96898523713462171E+05   6.96899953194500878E+05
             6.96901472278435831E+05   6.96903089037780184E+05   6.96904812744855648E+05   6.96906654146648478E+05   6.96908624690085417E+05
             6.96910735594990547E+05   6.96912997364923242E+05   6.96915419938829844E+05   6.96918013015182805E+05   6.96920785806372529E+05
             6.96923746924587293E+05   6.96926904571180348E+05   6.96930266855175025E+05   6.96933842171489261E+05   6.96937639331038576E+05
             6.96941667463604710E+05   6.96945935944861732E+05   6.96950454412893858E+05   6.96955232536919648E+05   6.96960279610190773E+05
             6.96965604326412315E+05   6.96971214618622791E+05   6.96977117026243475E+05
 ETA=   38   0.00000000000000000E+00   0.00000000000000000E+00   0.00000000000000000E+00   6.96787318151743268E+05   6.96790996785891359E+05
             6.96794504165869672E+05   6.96797842053537723E+05   6.96801013270131778E+05   6.96804020984541159E+05   6.96806869468507473E+05
             6.96809563068621326E+05   6.96812105002732715E+05   6.96814498125768034E+05   6.96816746862803469E+05   6.96818857471516123E+05
             6.96820837766310666E+05   6.96822696001861594E+05   6.96824439961130847E+05   6.96826077703554183E+05   6.96827616959994077E+05
             6.96829064717910369E+05   6.96830426847532741E+05   6.96831710309315356E+05   6.96832924729977385E+05   6.96834080594661064E+05
             6.96835188185292529E+05   6.96836257176412852E+05   6.96837297266432666E+05   6.96838317312938627E+05   6.96839324578518514E+05
             6.96840325220755534E+05   6.96841325798012433E+05   6.96842333976424532E+05   6.96843358384403167E+05   6.96844407286833622E+05
             6.96845487612930126E+05   6.96846606277091429E+05   6.96847769736960297E+05   6.96848983400790952E+05   6.96850252056279918E+05
             6.96851580905606039E+05   6.96852976258056937E+05   6.96854445245745941E+05   6.96855995253081433E+05   6.96857633601070731E+05
             6.96859367710694904E+05   6.96861205556658213E+05   6.96863156161492574E+05   6.96865229651285219E+05   6.96867436673938879E+05
             6.96869787802858627E+05   6.96872292880184716E+05   6.96874961289750412E+05   6.96877802444584202E+05   6.96880825526805711E+05
             6.96884039434501203E+05   6.96887452807536465E+05   6.96891074012697209E+05   6.96894911271801451E+05   6.96898972951409407E+05
             6.96903267867290531E+05   6.96907805404696148E+05   6.96912595530574908E+05   6.96917648577528074E+05   6.96922974813184235E+05
             6.96928583946009050E+05   6.96934484537039301E+05   6.96940683163287584E+05
 ETA=   39   0.00000000000000000E+00   0.00000000000000000E+00   0.00000000000000000E+00   6.96741346428921330E+05   6.96745001150971977E+05
             6.96748493006467470E+05   6.96751823345071869E+05   6.96754994389528292E+05   6.96758008537702379E+05   6.96760869325208361E+05
             6.96763580582111608E+05   6.96766145750520518E+05   6.96768568549141870E+05   6.96770854326872388E+05   6.96773009602562175E+05
             6.96775042041829671E+05   6.96776959515633876E+05   6.96778769474247703E+05   6.96780479737312067E+05   6.96782097820638446E+05
             6.96783630434784340E+05   6.96785082661367836E+05   6.96786460770008736E+05   6.96787774164028349E+05   6.96789033429385396E+05
             6.96790248948580469E+05   6.96791430163932964E+05   6.96792586322372430E+05   6.96793726080317749E+05   6.96794857165585156E+05
             6.96795986811793991E+05   6.96797122610426275E+05   6.96798272571711568E+05   6.96799445265196497E+05   6.96800648647998343E+05
             6.96801889219493140E+05   6.96803173625687021E+05   6.96804508364344947E+05   6.96805899151237099E+05   6.96807351179558435E+05
             6.96808869878161117E+05   6.96810461377598229E+05   6.96812132438050932E+05   6.96813890172745334E+05   6.96815741900939611E+05
             6.96817695216337917E+05   6.96819758255371475E+05   6.96821939926912892E+05   6.96824249699793058E+05   6.96826697229463491E+05
             6.96829292275810381E+05   6.96832044106457382E+05   6.96834961715625366E+05   6.96838054210216738E+05   6.96841330650636810E+05
             6.96844800104902708E+05   6.96848471497263992E+05   6.96852353327887831E+05   6.96856453646746697E+05   6.96860780443755444E+05
             6.96865342226149165E+05   6.96870148371017305E+05   6.96875209126651636E+05   6.96880535435955855E+05   6.96886138536293525E+05
             6.96892029165099608E+05   6.96898216569646262E+05   6.96904707511403249E+05
 ETA=   40   0.00000000000000000E+00   0.00000000000000000E+00   0.00000000000000000E+00   0.00000000000000000E+00   6.96699173056827043E+05
             6.96702655945214909E+05   6.96705985634843004E+05   6.96709163278390653E+05   6.96712190429367009E+05   6.96715069672613870E+05
             6.96717804270774592E+05   6.96720398233930697E+05   6.96722856825721683E+05   6.96725186719715944E+05   6.96727394386757980E+05
             6.96729486416423693E+05   6.96731469450649689E+05   6.96733350437850691E+05   6.96735136955096270E+05   6.96736836533231777E+05
             6.96738456164416973E+05   6.96740001408985816E+05   6.96741478870345163E+05   6.96742897517850506E+05   6.96744267255877028E+05
             6.96745597901646281E+05   6.96746898552329279E+05   6.96748177876229980E+05   6.96749444318805821E+05   6.96750706356207607E+05
             6.96751972880317247E+05   6.96753252904495224E+05   6.96754554515975877E+05   6.96755885412450996E+05   6.96757252572564990E+05
             6.96758662080611917E+05   6.96760120221398654E+05   6.96761633369376883E+05   6.96763207638026099E+05   6.96764848970292485E+05
             6.96766563336509629E+05   6.96768356722515426E+05   6.96770235381479491E+05   6.96772205957398517E+05   6.96774275662916247E+05
             6.96776452312760521E+05   6.96778744336586096E+05   6.96781160637637600E+05   6.96783710094917216E+05   6.96786401377309579E+05
             6.96789243369288160E+05   6.96792244868531940E+05   6.96795414683349198E+05   6.96798761656610179E+05   6.96802294559596106E+05
             6.96806022252674680E+05   6.96809953572938684E+05   6.96814096947994316E+05   6.96818460321662249E+05   6.96823051700335927E+05
             6.96827879757499322E+05   6.96832954128926620E+05   6.96838285303586395E+05   6.96843884489832795E+05   6.96849763385067112E+05
             6.96855933408288052E+05   6.96862404452785384E+05   6.96869183700104943E+05
 ETA=   41   0.00000000000000000E+00   0.00000000000000000E+00   0.00000000000000000E+00   0.00000000000000000E+00   6.96653502218701062E+05
             6.96656981920624268E+05   6.96660316807195544E+05   6.96663507036657073E+05   6.96666553470312152E+05   6.96669457854188280E+05
             6.96672222879231675E+05   6.96674852925619576E+05   6.96677354728030390E+05   6.96679735997617012E+05   6.96682002876535058E+05
             6.96684160824009567E+05   6.96686215333280386E+05   6.96688172830001335E+05   6.96690040288629127E+05   6.96691824991620611E+05
             6.96693534508646117E+05   6.96695175880888826E+05   6.96696756874921033E+05   6.96698286154674715E+05   6.96699772613678942E+05
             6.96701225144503289E+05   6.96702652496026712E+05   6.96704062830291456E+05   6.96705464337699697E+05   6.96706866084693815E+05
             6.96708278569390997E+05   6.96709712012677453E+05   6.96711174280290725E+05   6.96712672101242701E+05   6.96714211502470891E+05
             6.96715798243085621E+05   6.96717438254511100E+05   6.96719137647862895E+05   6.96720902739977697E+05   6.96722740178672946E+05
             6.96724656507922336E+05   6.96726657620517188E+05   6.96728749362559174E+05   6.96730937969818246E+05   6.96733230491880793E+05
             6.96735634829492657E+05   6.96738159604317974E+05   6.96740813749477849E+05   6.96743605730235926E+05   6.96746543512275442E+05
             6.96749635258740629E+05   6.96752889269309002E+05   6.96756314056829899E+05   6.96759918147647171E+05   6.96763710011423333E+05
             6.96767698165783542E+05   6.96771891095528495E+05   6.96776296968789422E+05   6.96780923726506764E+05   6.96785779646758921E+05
             6.96790873720020638E+05   6.96796215844786027E+05   6.96801816746189026E+05   6.96807687891371665E+05   6.96813841273518978E+05
             6.96820288700848236E+05   6.96827040571127553E+05   6.96834104700604687E+05
 ETA=   42   0.00000000000000000E+00   0.00000000000000000E+00   0.00000000000000000E+00   0.00000000000000000E+00   6.96607976968202624E+05
             6.96611458772223210E+05   6.96614804270537454E+05   6.96618012867304264E+05   6.96621084794771625E+05   6.96624021166085382E+05
             6.96626824298548396E+05   6.96629498668942251E+05   6.96632051731823012E+05   6.96634491560422583E+05   6.96636824007202405E+05
             6.96639053752984852E+05   6.96641185472454876E+05   6.96643224946389324E+05   6.96645178287838236E+05   6.96647052472092677E+05
             6.96648855824321741E+05   6.96650597160873236E+05   6.96652285813709954E+05   6.96653930625615059E+05   6.96655539590892149E+05
             6.96657120563155273E+05   6.96658681801110506E+05   6.96660231127571082E+05   6.96661776693941792E+05   6.96663327950312756E+05
             6.96664896283675451E+05   6.96666492494405713E+05   6.96668124233502778E+05   6.96669797520685708E+05   6.96671517630432034E+05
[...]
             9.32813645285545662E+06   9.32819089203285240E+06   9.32824542759536207E+06   9.32830007019086182E+06   9.32835481664658338E+06
             9.32840966021995991E+06   9.32846459497622401E+06   9.32851961583301798E+06   9.32857471888035163E+06   9.32862990189189650E+06
             9.32868516512171738E+06   9.32874051040520333E+06   9.32879594094026461E+06   9.32885145837140083E+06   9.32890706631046720E+06
             9.32896277016836219E+06   9.32901857772766240E+06   9.32907449841019325E+06   9.32913054236918874E+06   9.32918672031791136E+06
             9.32924304372998327E+06   9.32929952392115816E+06   9.32935616880674101E+06
 ETA=  168   0.00000000000000000E+00   0.00000000000000000E+00   9.32577249650465138E+06   9.32583087687298097E+06   9.32588898659803905E+06
             9.32594684444411844E+06   9.32600446636660956E+06   9.32606186682105623E+06   9.32611905866485462E+06   9.32617605287710391E+06
             9.32623285849974304E+06   9.32628948272951692E+06   9.32634593165994436E+06   9.32640221529070102E+06   9.32645834128769115E+06
             9.32651431461000256E+06   9.32657013740511425E+06   9.32662580994077213E+06   9.32668133115028590E+06   9.32673669840788841E+06
             9.32679190742221288E+06   9.32684695556551218E+06   9.32690185177560523E+06   9.32695660935069248E+06   9.32701124196782894E+06
             9.32706576318762638E+06   9.32712018653658032E+06   9.32717452463999577E+06   9.32722878942185268E+06   9.32728299236974306E+06
             9.32733714437456056E+06   9.32739125749634765E+06   9.32744534171809442E+06   9.32749940522622317E+06   9.32755345425145328E+06
             9.32760749397798255E+06   9.32766152954862453E+06   9.32771556697758287E+06   9.32776961278133094E+06   9.32782367423268780E+06
             9.32787775836328231E+06   9.32793187323111668E+06   9.32798602747319452E+06   9.32804023059105687E+06   9.32809449308807775E+06
             9.32814882584664971E+06   9.32820324057263136E+06   9.32825774955463409E+06   9.32831236246418208E+06   9.32836707689168863E+06
             9.32842188695423678E+06   9.32847678733894974E+06   9.32853177341329306E+06   9.32858684134367667E+06   9.32864198890144937E+06
             9.32869721625524200E+06   9.32875252557244711E+06   9.32880792076144926E+06   9.32886340363572910E+06   9.32891897769471258E+06
             9.32897464821276814E+06   9.32903042237474211E+06   9.32908630933815241E+06   9.32914231916589476E+06   9.32919846227751300E+06
             9.32925475007403269E+06   9.32931119392659515E+06   9.32936780202326179E+06
 ETA=  169   0.00000000000000000E+00   0.00000000000000000E+00   9.32578631663599238E+06   9.32584458402022533E+06   9.32590259270253405E+06
             9.32596036000170372E+06   9.32601790054427646E+06   9.32607522801145352E+06   9.32613235433657467E+06   9.32618928933126852E+06
             9.32624604154956527E+06   9.32630261739598215E+06   9.32635902224894613E+06   9.32641526542771794E+06   9.32647135428098775E+06
             9.32652729342767596E+06   9.32658308512380347E+06   9.32663872946720757E+06   9.32669422520670108E+06   9.32674956953647546E+06
             9.32680475797626190E+06   9.32685978803308494E+06   9.32691466791862994E+06   9.32696941062368266E+06   9.32702402968126349E+06
             9.32707853843383677E+06   9.32713295008950494E+06   9.32718727672794089E+06   9.32724152992857248E+06   9.32729572063359618E+06
             9.32734985923260264E+06   9.32740395772743784E+06   9.32745802621989138E+06   9.32751207293949649E+06   9.32756610432868823E+06
             9.32762012559276074E+06   9.32767414194132201E+06   9.32772815925173089E+06   9.32778218413386866E+06   9.32783622424949519E+06
             9.32789028667294048E+06   9.32794437949856929E+06   9.32799851141198166E+06   9.32805269171161950E+06   9.32810693079196662E+06
             9.32816123934181035E+06   9.32821562876019068E+06   9.32827011057554744E+06   9.32832469338181242E+06   9.32837937529917620E+06
             9.32843415115686879E+06   9.32848901623087749E+06   9.32854396634402499E+06   9.32859899786160700E+06   9.32865410874713957E+06
             9.32870929909231886E+06   9.32876457124132290E+06   9.32881992949669249E+06   9.32887537585790269E+06   9.32893091384718008E+06
             9.32898654883597977E+06   9.32904228753066249E+06   9.32909813880544528E+06   9.32915411265933514E+06   9.32921021921875328E+06
             9.32926646973054111E+06   9.32932287548189051E+06   9.32937944494237378E+06
 ETA=  170   0.00000000000000000E+00   0.00000000000000000E+00   9.32580021171693318E+06   9.32585836334117875E+06   9.32591626900422201E+06
             9.32597394437142275E+06   9.32603140256416425E+06   9.32608865626870468E+06   9.32614571638763323E+06   9.32620259155283496E+06
             9.32625928975665942E+06   9.32631581673580222E+06   9.32637217728478089E+06   9.32642837995992228E+06   9.32648443164358102E+06
             9.32654033650233783E+06   9.32659609678279981E+06   9.32665171244085208E+06   9.32670718212324195E+06   9.32676250291436911E+06
             9.32681767011793330E+06   9.32687268120023422E+06   9.32692754380727932E+06   9.32698227070867084E+06   9.32703687537005916E+06
             9.32709137098076940E+06   9.32714577041770332E+06   9.32720008524365723E+06   9.32725432670375891E+06   9.32730850522990711E+06
             9.32736263068014570E+06   9.32741671478139609E+06   9.32747076761418954E+06   9.32752479741471820E+06   9.32757881081415713E+06
             9.32763281307784095E+06   9.32768680959339067E+06   9.32774080623398349E+06   9.32779480963360704E+06   9.32784882760667428E+06
             9.32790286721413583E+06   9.32795693661808595E+06   9.32801104468750022E+06   9.32806520070561767E+06   9.32811941499050520E+06
             9.32817369804447144E+06   9.32822806097353995E+06   9.32828251467862166E+06   9.32833706674148515E+06   9.32839171555535682E+06
             9.32844645649344847E+06   9.32850128534951620E+06   9.32855619836482592E+06   9.32861119217404909E+06   9.32866626508127339E+06
             9.32872141725067049E+06   9.32877665111956373E+06   9.32883197110084258E+06   9.32888737925156578E+06   9.32894287911903672E+06
             9.32899847628583200E+06   9.32905417723539658E+06   9.32910999062308110E+06   9.32916592639819533E+06   9.32922199447277933E+06
             9.32927820590106957E+06   9.32933457176656649E+06   9.32939110072324239E+06
 ETA=  171   0.00000000000000000E+00   0.00000000000000000E+00   9.32581417978645675E+06   9.32587221329734102E+06   9.32593001430313103E+06
             9.32598759667960368E+06   9.32604497194815800E+06   9.32610215153718367E+06   9.32615914522485808E+06   9.32621596053085104E+06
             9.32627260467872582E+06   9.32632908276508749E+06   9.32638539905653894E+06   9.32644156143058464E+06   9.32649757620791718E+06
             9.32655344705706649E+06   9.32660917601474002E+06   9.32666476287599467E+06   9.32672020622072741E+06   9.32677550307679176E+06
             9.32683064861159772E+06   9.32688564010659233E+06   9.32694048484573327E+06   9.32699519537244178E+06   9.32704978507725149E+06
             9.32710426701936871E+06   9.32715865377284959E+06   9.32721295647026971E+06   9.32726718599737436E+06   9.32732135236592405E+06
             9.32737546494041942E+06   9.32742953501831181E+06   9.32748357246152684E+06   9.32753758542430215E+06   9.32759158062640950E+06
             9.32764556340384670E+06   9.32769953933804482E+06   9.32775351446391456E+06   9.32780749553472362E+06   9.32786149041843042E+06
             9.32791550606919080E+06   9.32796955065503158E+06   9.32802363323250972E+06   9.32807776323514991E+06   9.32813195100935735E+06
             9.32818620693782903E+06   9.32824054182152823E+06   9.32829496605060250E+06   9.32834948640870303E+06   9.32840410136773065E+06
             9.32845880665434897E+06   9.32851359845259413E+06   9.32856847334323451E+06   9.32862342824853025E+06   9.32867846184206754E+06
             9.32873357455063425E+06   9.32878876895590499E+06   9.32884404944772273E+06   9.32889941793950647E+06   9.32895487791070342E+06
             9.32901043510220759E+06   9.32906609601374902E+06   9.32912186920820549E+06   9.32917776459606178E+06   9.32923379197487049E+06
             9.32928996224257536E+06   9.32934628627334535E+06   9.32940277276694216E+06
 ETA=  172   0.00000000000000000E+00   0.00000000000000000E+00   9.32582821823302656E+06   9.32588613192920759E+06   9.32594382714098506E+06
             9.32600131586077809E+06   9.32605860793596506E+06   9.32611571328249760E+06   9.32617264050981216E+06   9.32622939619221166E+06
             9.32628598661733605E+06   9.32634241622797772E+06   9.32639868870306946E+06   9.32645481135965139E+06   9.32651078990158066E+06
             9.32656662744398415E+06   9.32662232549482770E+06   9.32667788361536898E+06   9.32673330041296966E+06   9.32678857298534736E+06
             9.32684369651010633E+06   9.32689866804566048E+06   9.32695349482441880E+06   9.32700818907816149E+06   9.32706276387918368E+06
             9.32711723193147220E+06   9.32717160548993759E+06   9.32722589551309869E+06   9.32728011266362853E+06   9.32733426670506038E+06
             9.32738836659944616E+06   9.32744242314369604E+06   9.32749644577967934E+06   9.32755044237267971E+06   9.32760441942286864E+06
             9.32765838226060197E+06   9.32771233671057411E+06   9.32776628919124417E+06   9.32782024674740620E+06   9.32787421738437749E+06
             9.32792820796161890E+06   9.32798222651362792E+06   9.32803628209028207E+06   9.32809038425935060E+06   9.32814454345281981E+06
             9.32819877011756413E+06   9.32825307489353791E+06   9.32830746781827509E+06   9.32836195512135886E+06   9.32841653523910232E+06
             9.32847120412625372E+06   9.32852595818408392E+06   9.32858079413853213E+06   9.32863570911738276E+06   9.32869070210455917E+06
             9.32874577395395003E+06   9.32880092751750164E+06   9.32885616725289449E+06   9.32891149484070390E+06   9.32896691355181299E+06
             9.32902242906744964E+06   9.32907804797171615E+06   9.32913377877232432E+06   9.32918963136597723E+06   9.32924561559505761E+06
             9.32930174230119586E+06   9.32935802227353863E+06   9.32941446419458836E+06
 ETA=  173   0.00000000000000000E+00   0.00000000000000000E+00   9.32584232427984104E+06   9.32590011684669740E+06   9.32595770531683788E+06
             9.32601509972561896E+06   9.32607230825276487E+06   9.32612933915470354E+06   9.32618619988441654E+06   9.32624289623116516E+06
             9.32629943337852694E+06   9.32635581507361680E+06   9.32641204429294355E+06   9.32646812778044492E+06   9.32652407060340419E+06
             9.32657987543414719E+06   9.32663554314541630E+06   9.32669107300006226E+06   9.32674646351681091E+06   9.32680171177510358E+06
             9.32685681301726587E+06   9.32691176410379261E+06   9.32696657261322439E+06   9.32702125048180111E+06   9.32707581033069268E+06
             9.32713026439097896E+06   9.32718462452889234E+06   9.32723890157659166E+06   9.32729310597541742E+06   9.32734724738278985E+06
             9.32740133449861407E+06   9.32745537760543451E+06   9.32750938564314507E+06   9.32756336616336182E+06   9.32761732530184463E+06
             9.32767126825082488E+06   9.32772520088726841E+06   9.32777913000361063E+06   9.32783306301086769E+06   9.32788700819500163E+06
             9.32794097251030616E+06   9.32799496383229084E+06   9.32804899104086310E+06   9.32810306380177476E+06   9.32815719260912202E+06
             9.32821138800885342E+06   9.32826566056778654E+06   9.32832002018350922E+06   9.32837447282661684E+06   9.32842901680106670E+06
             9.32848364823620580E+06   9.32853836372139864E+06   9.32859316003091075E+06   9.32864803436374106E+06   9.32870298578291014E+06
             9.32875801554558799E+06   9.32881312683255970E+06   9.32886832436507381E+06   9.32892360973824188E+06   9.32897898597563803E+06
             9.32903445847242512E+06   9.32909003389447182E+06   9.32914572062101401E+06   9.32920152841570973E+06   9.32925746724758670E+06
             9.32931354801091552E+06   9.32936978159999847E+06   9.32942617674637586E+06
 ETA=  174   0.00000000000000000E+00   0.00000000000000000E+00   9.32585649523613043E+06   9.32591416565977968E+06   9.32597164664533548E+06
             9.32602894619243778E+06   9.32608607086078264E+06   9.32614302715452574E+06   9.32619982132012025E+06   9.32625645849543437E+06
             9.32631294272290915E+06   9.32636927701836266E+06   9.32642546360070072E+06   9.32648150850073248E+06   9.32653741611364856E+06
             9.32659318875628151E+06   9.32664882667129673E+06   9.32670432880169712E+06   9.32675969343472831E+06   9.32681491749885678E+06
             9.32686999625748955E+06   9.32692492638944834E+06   9.32697971619010344E+06   9.32703437746592797E+06   9.32708892229049839E+06
             9.32714336227029189E+06   9.32719770881029405E+06   9.32725197263633087E+06   9.32730616395208053E+06   9.32736029235712998E+06
             9.32741436642907746E+06   9.32746839595038630E+06   9.32752238936466724E+06   9.32757635392419435E+06   9.32763029534341581E+06
             9.32768421861591749E+06   9.32773812948008068E+06   9.32779203493942879E+06   9.32784594269484095E+06   9.32789986135268025E+06
             9.32795379822210968E+06   9.32800776116416045E+06   9.32806175880802609E+06   9.32811580078848824E+06   9.32816989759501070E+06
             9.32822405988905951E+06   9.32827829821549170E+06   9.32833262249478139E+06   9.32838703875897266E+06   9.32844154516878538E+06
             9.32849613797081262E+06   9.32855081391796283E+06   9.32860556981232576E+06   9.32866040287762694E+06   9.32871531203912757E+06
             9.32877029877740704E+06   9.32882536653366685E+06   9.32888052038802952E+06   9.32893576213513687E+06   9.32899109468542039E+06
             9.32904652300305665E+06   9.32910205373268202E+06   9.32915769504939951E+06   9.32921345645264536E+06   9.32926934800224192E+06
             9.32932538068308309E+06   9.32938156564426795E+06   9.32943791181785613E+06
 ETA=  175   0.00000000000000000E+00   0.00000000000000000E+00   9.32587072814273834E+06   9.32592827571876533E+06   9.32598564872240834E+06
             9.32604285302256420E+06   9.32609989361454733E+06   9.32615677533192001E+06   9.32621350312921777E+06   9.32627008140314557E+06
             9.32632651307310537E+06   9.32638280042276531E+06   9.32643894498006813E+06   9.32649495180116035E+06   9.32655082455965318E+06
             9.32660656529857405E+06   9.32666217386111803E+06   9.32671764893502928E+06   9.32677298834319226E+06   9.32682818861036003E+06
             9.32688324485937878E+06   9.32693815365798958E+06   9.32699292418752052E+06   9.32704756832380965E+06   9.32710209770542383E+06
             9.32715652340685949E+06   9.32721085632484220E+06   9.32726510690995120E+06   9.32731928501576185E+06   9.32737340013525076E+06
             9.32742746084648184E+06   9.32748147639601305E+06   9.32753545478534140E+06   9.32758940309155919E+06   9.32764332674830779E+06
             9.32769723058623821E+06   9.32775112003380805E+06   9.32780500198513269E+06   9.32785888419039920E+06   9.32791277548744902E+06
             9.32796668374160677E+06   9.32802061701142043E+06   9.32807458381909318E+06   9.32812859375430271E+06   9.32818265721948072E+06
             9.32823678487891704E+06   9.32829098720505647E+06   9.32834527423311211E+06   9.32839965234295651E+06   9.32845411963410862E+06
             9.32850867243117653E+06   9.32856330764818937E+06   9.32861802218240313E+06   9.32867281334416941E+06   9.32872767980596423E+06
             9.32878262297084369E+06   9.32883764631602354E+06   9.32889275519361906E+06   9.32894795187379606E+06   9.32900323935808800E+06
             9.32905862225165777E+06   9.32911410711876862E+06   9.32916970188380592E+06   9.32922541567296535E+06   9.32928125848852284E+06
             9.32933724133558758E+06   9.32939337565354258E+06   9.32944967074452527E+06
 ETA=  176   0.00000000000000000E+00   0.00000000000000000E+00   9.32588502026923932E+06   9.32594244468250684E+06   9.32599970967648923E+06
             9.32605681883099303E+06   9.32611377548270859E+06   9.32617058285252750E+06   9.32622724453398213E+06   9.32628376404399797E+06
             9.32634014332281426E+06   9.32639638401187956E+06   9.32645248714214191E+06   9.32650845648792945E+06   9.32656429490852728E+06
             9.32662000406160206E+06   9.32667558354896121E+06   9.32673103189874068E+06   9.32678634641817957E+06   9.32684152318864875E+06
             9.32689655701034889E+06   9.32695144438029639E+06   9.32700619535072148E+06   9.32706082201369293E+06   9.32711533559424616E+06
             9.32716974671651423E+06   9.32722406577333808E+06   9.32727830286684632E+06   9.32733246755554527E+06   9.32738656919117831E+06
             9.32744061641694978E+06   9.32749461782759055E+06   9.32754858097426966E+06   9.32760251274361834E+06   9.32765641836986132E+06
             9.32771030261265673E+06   9.32776417065341584E+06   9.32781802913204581E+06   9.32787188561003469E+06   9.32792574893895723E+06
             9.32797962763862871E+06   9.32803353011368401E+06   9.32808746491080895E+06   9.32814144155910425E+06   9.32819547034816630E+06
             9.32824956189764850E+06   9.32830372659163736E+06   9.32835797460821643E+06   9.32841231282918900E+06   9.32846673944146931E+06
             9.32852125087726675E+06   9.32857584415946342E+06   9.32863051626878045E+06   9.32868526469288953E+06   9.32874008795170113E+06
             9.32879498718437739E+06   9.32884996563424170E+06   9.32890502863447182E+06   9.32896017910189554E+06   9.32901542028078437E+06
             9.32907075654982962E+06   9.32912619433929399E+06   9.32918174132835120E+06   9.32923740629620850E+06   9.32929319909636676E+06
             9.32934913064826280E+06   9.32940521257928014E+06   9.32946145468326658E+06
 ETA=  177   0.00000000000000000E+00   0.00000000000000000E+00   9.32589936947556958E+06   9.32595667071121000E+06   9.32601382807361893E+06
             9.32607084260030836E+06   9.32612771578514017E+06   9.32618444926376641E+06   9.32624104523641430E+06   9.32629750619672425E+06
             9.32635383322521485E+06   9.32641002743380517E+06   9.32646608961258829E+06   9.32652202200365067E+06   9.32657782653462701E+06
             9.32663350434930064E+06   9.32668905495416746E+06   9.32674447679029219E+06   9.32679976664642803E+06   9.32685492020836845E+06
             9.32690993181168288E+06   9.32696479782834090E+06   9.32701952900778688E+06   9.32707413781777583E+06   9.32712863517530262E+06
             9.32718303136768192E+06   9.32723733627402969E+06   9.32729155957799405E+06   9.32734571062996238E+06   9.32739979864786752E+06
             9.32745383237534016E+06   9.32750781958712265E+06   9.32756176732694358E+06   9.32761568225232512E+06   9.32766956947446428E+06
             9.32772343375478871E+06   9.32777728012632579E+06   9.32783111494476907E+06   9.32788494546708278E+06   9.32793878032178432E+06
             9.32799262863988616E+06   9.32804649925838411E+06   9.32810040089931898E+06   9.32815434304813482E+06   9.32820833588016219E+06
             9.32826238996463828E+06   9.32831651559774578E+06   9.32837072307623550E+06   9.32842501978434995E+06   9.32847940409955382E+06
             9.32853387268844619E+06   9.32858842274179682E+06   9.32864305132379197E+06   9.32869775612004846E+06   9.32875253562044166E+06
             9.32880739061584324E+06   9.32886232392858155E+06   9.32891734050710127E+06   9.32897244391597249E+06   9.32902763773737848E+06
             9.32908292629408650E+06   9.32913831585689075E+06   9.32919381386419944E+06   9.32924942880550772E+06   9.32930517035655677E+06
             9.32936104929954186E+06   9.32941707730107568E+06   9.32947326468018815E+06
