*
* Deltares, Delft3D-QUICKIN Version 4.18.01.18383, Sep  7 2011, 14:23:24
* File creation date: 2026-02-10, 16:55:12
*
Begin listing of removed samples
            343         344   703761.453000000        9324044.21600000     
            734         735   703790.705000000        9324117.42700000     
           1258        1259   703846.485000000        9324122.09700000     
           1532        1533   703873.296000000        9324120.52500000     
           1980        1981   703918.900000000        9324123.50000000     
           2257        2258   703953.686000000        9324138.10700000     
           2955        2956   704034.378000000        9324138.24300000     
           4334        4335   704203.378000000        9324161.07500000     
           5363        5364   704322.541000000        9324171.43100000     
           6296        6297   704432.693000000        9324169.86500000     
           7533        7534   704582.058000000        9324170.62000000     
           7664        7665   704594.493000000        9324191.28300000     
           7827        7828   704611.306000000        9324171.32100000     
           8210        8211   704643.667000000        9324198.11300000     
           8959        8960   704712.884000000        9324183.33000000     
           9446        9447   704755.352000000        9324206.11100000     
          10491       10492   704874.955000000        9324208.80600000     
          11166       11167   704954.819000000        9323954.27600000     
          11645       11646   705015.432000000        9324074.14100000     
          11835       11836   705035.130000000        9324185.67300000     
End listing of removed samples
Begin listing of removed samples
           4534        4535   701605.472000000        9324224.00300000     
          10690       10691   702325.890000000        9323703.33200000     
          11086       11087   702331.371000000        9323705.17600000     
          11363       11364   702334.815000000        9323705.70500000     
          11851       11852   702341.358000000        9324100.65700000     
          11851       11853   702341.358000000        9324100.65700000     
          11854       11855   702341.361000000        9324102.10800000     
          11854       11856   702341.361000000        9324102.10800000     
          11857       11858   702341.363000000        9324099.38800000     
          11857       11859   702341.363000000        9324099.38800000     
          11860       11861   702341.370000000        9324103.70400000     
          11860       11862   702341.370000000        9324103.70400000     
          11863       11864   702341.376000000        9324098.28800000     
          11863       11865   702341.376000000        9324098.28800000     
          11866       11867   702341.384000000        9324105.39800000     
          11866       11868   702341.384000000        9324105.39800000     
          11870       11871   702341.396000000        9324097.33400000     
          11870       11872   702341.396000000        9324097.33400000     
          11873       11874   702341.399000000        9324107.14200000     
          11873       11875   702341.399000000        9324107.14200000     
          11878       11879   702341.414000000        9324108.89000000     
          11878       11880   702341.414000000        9324108.89000000     
          11881       11882   702341.419000000        9324117.19100000     
          11881       11883   702341.419000000        9324117.19100000     
          11884       11885   702341.421000000        9324118.19100000     
          11884       11886   702341.421000000        9324118.19100000     
          11887       11888   702341.423000000        9324096.50200000     
          11887       11889   702341.423000000        9324096.50200000     
          11890       11891   702341.425000000        9324116.13400000     
          11890       11892   702341.425000000        9324116.13400000     
          11893       11894   702341.428000000        9324110.59300000     
          11893       11895   702341.428000000        9324110.59300000     
          11896       11897   702341.433000000        9324114.97700000     
          11896       11898   702341.433000000        9324114.97700000     
          11899       11900   702341.436000000        9324112.20400000     
          11899       11901   702341.436000000        9324112.20400000     
          11902       11903   702341.437000000        9324119.17800000     
          11902       11904   702341.437000000        9324119.17800000     
          11905       11906   702341.438000000        9324113.67600000     
          11905       11907   702341.438000000        9324113.67600000     
          11909       11910   702341.455000000        9324095.77000000     
          11909       11911   702341.455000000        9324095.77000000     
          11913       11914   702341.472000000        9324120.19500000     
          11913       11915   702341.472000000        9324120.19500000     
          11918       11919   702341.493000000        9324095.11300000     
          11918       11920   702341.493000000        9324095.11300000     
          11923       11924   702341.531000000        9324121.28600000     
          11923       11925   702341.531000000        9324121.28600000     
          11927       11928   702341.535000000        9324094.50800000     
          11927       11929   702341.535000000        9324094.50800000     
          11935       11936   702341.581000000        9324093.93200000     
          11935       11937   702341.581000000        9324093.93200000     
          11941       11942   702341.621000000        9324122.49300000     
          11941       11943   702341.621000000        9324122.49300000     
          11945       11946   702341.631000000        9324093.36100000     
          11945       11947   702341.631000000        9324093.36100000     
          11951       11952   702341.687000000        9324092.77300000     
          11951       11953   702341.687000000        9324092.77300000     
          11958       11959   702341.744000000        9324123.84900000     
          11958       11960   702341.744000000        9324123.84900000     
          11961       11962   702341.750000000        9324092.14400000     
          11961       11963   702341.750000000        9324092.14400000     
          11969       11970   702341.824000000        9324091.45400000     
          11969       11971   702341.824000000        9324091.45400000     
          11979       11980   702341.895000000        9324125.34800000     
          11979       11981   702341.895000000        9324125.34800000     
          11983       11984   702341.911000000        9324090.67800000     
          11983       11985   702341.911000000        9324090.67800000     
          11990       11991   702342.012000000        9324089.79400000     
          11990       11992   702342.012000000        9324089.79400000     
          11996       11997   702342.063000000        9324126.97100000     
          11996       11998   702342.063000000        9324126.97100000     
          12002       12003   702342.131000000        9324088.78000000     
          12002       12004   702342.131000000        9324088.78000000     
          12013       12014   702342.240000000        9324128.69900000     
          12013       12015   702342.240000000        9324128.69900000     
          12016       12017   702342.269000000        9324087.61200000     
          12016       12018   702342.269000000        9324087.61200000     
          12023       12024   702342.417000000        9324130.51500000     
          12023       12025   702342.417000000        9324130.51500000     
          12028       12029   702342.428000000        9324086.28100000     
          12028       12030   702342.428000000        9324086.28100000     
          12037       12038   702342.585000000        9324132.40000000     
          12037       12039   702342.585000000        9324132.40000000     
          12041       12042   702342.602000000        9324084.81600000     
          12041       12043   702342.602000000        9324084.81600000     
          12048       12049   702342.721000000        9324159.95700000     
          12048       12050   702342.721000000        9324159.95700000     
          12052       12053   702342.723000000        9324159.23400000     
          12052       12054   702342.723000000        9324159.23400000     
          12055       12056   702342.723000000        9324160.76300000     
          12055       12057   702342.723000000        9324160.76300000     
          12058       12060   702342.729000000        9324161.67400000     
          12058       12061   702342.729000000        9324161.67400000     
          12059       12062   702342.729000000        9324158.57300000     
          12059       12063   702342.729000000        9324158.57300000     
          12064       12065   702342.734000000        9324134.33600000     
          12064       12066   702342.734000000        9324134.33600000     
          12067       12068   702342.737000000        9324157.95200000     
          12067       12069   702342.737000000        9324157.95200000     
          12070       12071   702342.738000000        9324162.71100000     
          12070       12072   702342.738000000        9324162.71100000     
          12073       12074   702342.750000000        9324157.34800000     
          12073       12075   702342.750000000        9324157.34800000     
          12076       12077   702342.751000000        9324163.89600000     
          12076       12078   702342.751000000        9324163.89600000     
          12079       12080   702342.766000000        9324156.74100000     
          12079       12081   702342.766000000        9324156.74100000     
          12082       12083   702342.767000000        9324165.24000000     
          12082       12084   702342.767000000        9324165.24000000     
          12085       12088   702342.785000000        9324156.10900000     
          12085       12089   702342.785000000        9324156.10900000     
          12086       12087   702342.785000000        9324083.26300000     
          12086       12090   702342.785000000        9324083.26300000     
          12091       12092   702342.786000000        9324166.71200000     
          12091       12093   702342.786000000        9324166.71200000     
          12094       12095   702342.805000000        9324168.27100000     
          12094       12096   702342.805000000        9324168.27100000     
          12097       12098   702342.807000000        9324155.43000000     
          12097       12099   702342.807000000        9324155.43000000     
          12102       12103   702342.822000000        9324169.87500000     
          12102       12104   702342.822000000        9324169.87500000     
          12105       12106   702342.831000000        9324154.68200000     
          12105       12107   702342.831000000        9324154.68200000     
          12109       12110   702342.837000000        9324171.48300000     
          12109       12111   702342.837000000        9324171.48300000     
          12112       12113   702342.841000000        9324177.13300000     
          12112       12114   702342.841000000        9324177.13300000     
          12115       12117   702342.847000000        9324175.91400000     
          12115       12120   702342.847000000        9324175.91400000     
          12116       12118   702342.847000000        9324173.05300000     
          12116       12119   702342.847000000        9324173.05300000     
          12121       12122   702342.851000000        9324174.54400000     
          12121       12123   702342.851000000        9324174.54400000     
          12124       12125   702342.857000000        9324136.30500000     
          12124       12126   702342.857000000        9324136.30500000     
          12127       12128   702342.858000000        9324153.84300000     
          12127       12129   702342.858000000        9324153.84300000     
          12130       12131   702342.876000000        9324178.21200000     
          12130       12132   702342.876000000        9324178.21200000     
          12133       12134   702342.887000000        9324152.89100000     
          12133       12135   702342.887000000        9324152.89100000     
          12136       12137   702342.918000000        9324151.80500000     
          12136       12138   702342.918000000        9324151.80500000     
          12141       12142   702342.946000000        9324138.28800000     
          12141       12143   702342.946000000        9324138.28800000     
          12144       12145   702342.950000000        9324150.56300000     
          12144       12146   702342.950000000        9324150.56300000     
          12147       12148   702342.970000000        9324081.66300000     
          12147       12149   702342.970000000        9324081.66300000     
          12150       12151   702342.983000000        9324149.15100000     
          12150       12152   702342.983000000        9324149.15100000     
          12154       12155   702343.002000000        9324179.17300000     
          12154       12156   702343.002000000        9324179.17300000     
          12157       12158   702343.003000000        9324140.26200000     
          12157       12159   702343.003000000        9324140.26200000     
          12160       12161   702343.013000000        9324147.58400000     
          12160       12162   702343.013000000        9324147.58400000     
          12166       12168   702343.034000000        9324142.20300000     
          12166       12170   702343.034000000        9324142.20300000     
          12167       12169   702343.034000000        9324145.88800000     
          12167       12171   702343.034000000        9324145.88800000     
          12172       12173   702343.043000000        9324144.08600000     
          12172       12174   702343.043000000        9324144.08600000     
          12178       12179   702343.151000000        9324080.06100000     
          12178       12180   702343.151000000        9324080.06100000     
          12191       12192   702343.268000000        9324180.03900000     
          12191       12193   702343.268000000        9324180.03900000     
          12197       12198   702343.322000000        9324078.49900000     
          12197       12199   702343.322000000        9324078.49900000     
          12204       12205   702343.475000000        9324077.02100000     
          12204       12206   702343.475000000        9324077.02100000     
          12210       12211   702343.604000000        9324075.66900000     
          12210       12212   702343.604000000        9324075.66900000     
          12214       12215   702343.705000000        9324074.47200000     
          12214       12216   702343.705000000        9324074.47200000     
          12217       12218   702343.725000000        9324180.83200000     
          12217       12219   702343.725000000        9324180.83200000     
          12221       12222   702343.781000000        9324073.40200000     
          12221       12223   702343.781000000        9324073.40200000     
          12225       12226   702343.835000000        9324072.41400000     
          12225       12227   702343.835000000        9324072.41400000     
          12228       12229   702343.875000000        9324071.46500000     
          12228       12230   702343.875000000        9324071.46500000     
          12232       12233   702343.903000000        9324070.51100000     
          12232       12234   702343.903000000        9324070.51100000     
          12236       12237   702343.925000000        9324069.50800000     
          12236       12238   702343.925000000        9324069.50800000     
          12240       12241   702343.947000000        9324068.41300000     
          12240       12242   702343.947000000        9324068.41300000     
          12243       12244   702343.972000000        9324067.18200000     
          12243       12245   702343.972000000        9324067.18200000     
          12246       12247   702344.005000000        9324065.78200000     
          12246       12248   702344.005000000        9324065.78200000     
          12249       12250   702344.043000000        9324064.22400000     
          12249       12251   702344.043000000        9324064.22400000     
          12253       12254   702344.086000000        9324062.53100000     
          12253       12255   702344.086000000        9324062.53100000     
          12256       12257   702344.129000000        9324060.72400000     
          12256       12258   702344.129000000        9324060.72400000     
          12259       12260   702344.170000000        9324058.82500000     
          12259       12261   702344.170000000        9324058.82500000     
          12269       12270   702344.207000000        9324038.35200000     
          12269       12274   702344.207000000        9324038.35200000     
          12271       12272   702344.207000000        9324056.85800000     
          12271       12273   702344.207000000        9324056.85800000     
          12276       12278   702344.211000000        9324037.12800000     
          12276       12280   702344.211000000        9324037.12800000     
          12277       12279   702344.211000000        9324039.75500000     
          12277       12281   702344.211000000        9324039.75500000     
          12282       12286   702344.221000000        9324036.06700000     
          12282       12287   702344.221000000        9324036.06700000     
          12283       12284   702344.221000000        9324041.32000000     
          12283       12285   702344.221000000        9324041.32000000     
          12289       12290   702344.234000000        9324043.02500000     
          12289       12291   702344.234000000        9324043.02500000     
          12292       12294   702344.237000000        9324054.84200000     
          12292       12297   702344.237000000        9324054.84200000     
          12293       12295   702344.237000000        9324035.14700000     
          12293       12296   702344.237000000        9324035.14700000     
          12298       12299   702344.248000000        9324044.84500000     
          12298       12300   702344.248000000        9324044.84500000     
          12301       12302   702344.257000000        9324034.34500000     
          12301       12303   702344.257000000        9324034.34500000     
          12304       12305   702344.258000000        9324052.80200000     
          12304       12306   702344.258000000        9324052.80200000     
          12307       12308   702344.260000000        9324046.75600000     
          12307       12309   702344.260000000        9324046.75600000     
          12310       12311   702344.267000000        9324048.73500000     
          12310       12312   702344.267000000        9324048.73500000     
          12313       12314   702344.267000000        9324050.75800000     
          12313       12315   702344.267000000        9324050.75800000     
          12316       12317   702344.280000000        9324033.64000000     
          12316       12318   702344.280000000        9324033.64000000     
          12320       12321   702344.303000000        9324033.00700000     
          12320       12322   702344.303000000        9324033.00700000     
          12323       12324   702344.326000000        9324032.42400000     
          12323       12325   702344.326000000        9324032.42400000     
          12326       12327   702344.347000000        9324031.86900000     
          12326       12328   702344.347000000        9324031.86900000     
          12330       12331   702344.366000000        9324031.31900000     
          12330       12332   702344.366000000        9324031.31900000     
          12334       12335   702344.385000000        9324030.74900000     
          12334       12336   702344.385000000        9324030.74900000     
          12338       12339   702344.409000000        9324030.13500000     
          12338       12340   702344.409000000        9324030.13500000     
          12341       12342   702344.422000000        9324181.57300000     
          12341       12343   702344.422000000        9324181.57300000     
          12344       12345   702344.441000000        9324029.45100000     
          12344       12346   702344.441000000        9324029.45100000     
          12349       12350   702344.487000000        9324028.67300000     
          12349       12351   702344.487000000        9324028.67300000     
          12353       12354   702344.549000000        9324027.77700000     
          12353       12355   702344.549000000        9324027.77700000     
          12356       12357   702344.632000000        9324026.73700000     
          12356       12358   702344.632000000        9324026.73700000     
          12362       12363   702344.740000000        9324025.52900000     
          12362       12364   702344.740000000        9324025.52900000     
          12373       12374   702344.874000000        9324024.14000000     
          12373       12375   702344.874000000        9324024.14000000     
          12383       12384   702345.030000000        9324022.60600000     
          12383       12385   702345.030000000        9324022.60600000     
          12404       12405   702345.197000000        9324020.97400000     
          12404       12406   702345.197000000        9324020.97400000     
          12415       12416   702345.369000000        9324019.29200000     
          12415       12417   702345.369000000        9324019.29200000     
          12419       12420   702345.411000000        9324182.28600000     
          12419       12421   702345.411000000        9324182.28600000     
          12429       12430   702345.536000000        9324017.60700000     
          12429       12431   702345.536000000        9324017.60700000     
          12439       12440   702345.691000000        9324015.96600000     
          12439       12441   702345.691000000        9324015.96600000     
          12452       12453   702345.825000000        9324014.41800000     
          12452       12454   702345.825000000        9324014.41800000     
          12461       12462   702345.930000000        9324013.01000000     
          12461       12463   702345.930000000        9324013.01000000     
          12467       12468   702345.960000000        9323929.44100000     
          12467       12469   702345.960000000        9323929.44100000     
          12471       12472   702345.961000000        9323928.32400000     
          12471       12473   702345.961000000        9323928.32400000     
          12474       12475   702345.992000000        9323930.69500000     
          12474       12476   702345.992000000        9323930.69500000     
          12477       12478   702346.001000000        9324011.77300000     
          12477       12481   702346.001000000        9324011.77300000     
          12479       12480   702346.001000000        9323927.29700000     
          12479       12482   702346.001000000        9323927.29700000     
          12485       12486   702346.045000000        9324010.67700000     
          12485       12487   702346.045000000        9324010.67700000     
          12488       12489   702346.051000000        9323932.11900000     
          12488       12490   702346.051000000        9323932.11900000     
          12492       12493   702346.070000000        9324009.67600000     
          12492       12494   702346.070000000        9324009.67600000     
          12497       12498   702346.085000000        9323926.31200000     
          12497       12499   702346.085000000        9323926.31200000     
          12500       12501   702346.087000000        9324008.72200000     
          12500       12502   702346.087000000        9324008.72200000     
          12504       12506   702346.106000000        9324007.76900000     
          12504       12507   702346.106000000        9324007.76900000     
          12508       12509   702346.132000000        9323933.68100000     
          12508       12510   702346.132000000        9323933.68100000     
          12511       12512   702346.137000000        9324006.77000000     
          12511       12513   702346.137000000        9324006.77000000     
          12515       12516   702346.188000000        9324005.68000000     
          12515       12517   702346.188000000        9324005.68000000     
          12519       12520   702346.218000000        9323925.32000000     
          12519       12521   702346.218000000        9323925.32000000     
          12522       12523   702346.226000000        9323935.33400000     
          12522       12524   702346.226000000        9323935.33400000     
          12529       12531   702346.270000000        9324004.45100000     
          12529       12532   702346.270000000        9324004.45100000     
          12536       12537   702346.329000000        9323937.02900000     
          12536       12538   702346.329000000        9323937.02900000     
          12541       12542   702346.390000000        9324003.05200000     
          12541       12544   702346.390000000        9324003.05200000     
          12546       12547   702346.406000000        9323924.27400000     
          12546       12548   702346.406000000        9323924.27400000     
          12549       12550   702346.432000000        9323938.71900000     
          12549       12551   702346.432000000        9323938.71900000     
          12558       12559   702346.529000000        9323940.35700000     
          12558       12560   702346.529000000        9323940.35700000     
          12561       12562   702346.542000000        9324001.51500000     
          12561       12563   702346.542000000        9324001.51500000     
          12568       12569   702346.613000000        9323941.89500000     
          12568       12570   702346.613000000        9323941.89500000     
          12572       12573   702346.623000000        9323950.67800000     
          12572       12574   702346.623000000        9323950.67800000     
          12575       12576   702346.624000000        9323950.11300000     
          12575       12577   702346.624000000        9323950.11300000     
          12578       12579   702346.636000000        9323951.28900000     
          12578       12580   702346.636000000        9323951.28900000     
          12581       12582   702346.636000000        9323949.57100000     
          12581       12583   702346.636000000        9323949.57100000     
          12584       12585   702346.655000000        9323923.12600000     
          12584       12586   702346.655000000        9323923.12600000     
          12587       12588   702346.656000000        9323949.03300000     
          12587       12589   702346.656000000        9323949.03300000     
          12590       12591   702346.663000000        9323951.96300000     
          12590       12592   702346.663000000        9323951.96300000     
          12594       12595   702346.678000000        9323943.28600000     
          12594       12596   702346.678000000        9323943.28600000     
          12597       12598   702346.681000000        9323948.47400000     
          12597       12599   702346.681000000        9323948.47400000     
          12601       12602   702346.706000000        9323947.86900000     
          12601       12603   702346.706000000        9323947.86900000     
          12604       12605   702346.709000000        9323952.72300000     
          12604       12606   702346.709000000        9323952.72300000     
          12607       12608   702346.717000000        9323999.88500000     
          12607       12609   702346.717000000        9323999.88500000     
          12611       12612   702346.719000000        9323944.49300000     
          12611       12613   702346.719000000        9323944.49300000     
          12615       12616   702346.727000000        9323947.19300000     
          12615       12617   702346.727000000        9323947.19300000     
          12618       12619   702346.737000000        9323945.53000000     
          12618       12620   702346.737000000        9323945.53000000     
          12621       12622   702346.738000000        9323946.42200000     
          12621       12623   702346.738000000        9323946.42200000     
          12624       12625   702346.740000000        9324182.99200000     
          12624       12626   702346.740000000        9324182.99200000     
          12628       12629   702346.774000000        9323953.58800000     
          12628       12630   702346.774000000        9323953.58800000     
          12635       12636   702346.861000000        9323954.57800000     
          12635       12637   702346.861000000        9323954.57800000     
          12639       12640   702346.907000000        9323998.21000000     
          12639       12641   702346.907000000        9323998.21000000     
          12644       12645   702346.969000000        9323921.82700000     
          12644       12646   702346.969000000        9323921.82700000     
          12647       12648   702346.972000000        9323955.71400000     
          12647       12649   702346.972000000        9323955.71400000     
          12661       12662   702347.102000000        9323996.53700000     
          12661       12663   702347.102000000        9323996.53700000     
          12664       12665   702347.107000000        9323957.00900000     
          12664       12666   702347.107000000        9323957.00900000     
          12676       12677   702347.262000000        9323958.45200000     
          12676       12678   702347.262000000        9323958.45200000     
          12681       12682   702347.295000000        9323994.91100000     
          12681       12683   702347.295000000        9323994.91100000     
          12693       12694   702347.350000000        9323920.34300000     
          12693       12695   702347.350000000        9323920.34300000     
          12700       12701   702347.427000000        9323960.02500000     
          12700       12702   702347.427000000        9323960.02500000     
          12704       12705   702347.477000000        9323993.38000000     
          12704       12706   702347.477000000        9323993.38000000     
          12711       12712   702347.597000000        9323961.71200000     
          12711       12713   702347.597000000        9323961.71200000     
          12715       12716   702347.639000000        9323991.98900000     
          12715       12717   702347.639000000        9323991.98900000     
          12724       12725   702347.763000000        9323963.49300000     
          12724       12726   702347.763000000        9323963.49300000     
          12727       12728   702347.774000000        9323990.77100000     
          12727       12729   702347.774000000        9323990.77100000     
          12730       12731   702347.785000000        9323918.68700000     
          12730       12732   702347.785000000        9323918.68700000     
          12735       12736   702347.885000000        9323989.69300000     
          12735       12737   702347.885000000        9323989.69300000     
          12740       12741   702347.918000000        9323965.35100000     
          12740       12742   702347.918000000        9323965.35100000     
          12745       12746   702347.974000000        9323988.70800000     
          12745       12747   702347.974000000        9323988.70800000     
          12750       12751   702348.045000000        9323987.76900000     
          12750       12752   702348.045000000        9323987.76900000     
          12753       12754   702348.055000000        9323967.27000000     
          12753       12755   702348.055000000        9323967.27000000     
          12757       12758   702348.102000000        9323986.82900000     
          12757       12759   702348.102000000        9323986.82900000     
          12763       12764   702348.149000000        9323985.84100000     
          12763       12765   702348.149000000        9323985.84100000     
          12766       12767   702348.166000000        9323969.23000000     
          12766       12768   702348.166000000        9323969.23000000     
          12771       12772   702348.189000000        9323984.75700000     
          12771       12773   702348.189000000        9323984.75700000     
          12779       12780   702348.225000000        9323983.53000000     
          12779       12781   702348.225000000        9323983.53000000     
          12783       12784   702348.246000000        9323971.21400000     
          12783       12785   702348.246000000        9323971.21400000     
          12786       12787   702348.256000000        9323916.88500000     
          12786       12788   702348.256000000        9323916.88500000     
          12789       12790   702348.261000000        9323982.12600000     
          12789       12791   702348.261000000        9323982.12600000     
          12792       12793   702348.293000000        9323980.55900000     
          12792       12794   702348.293000000        9323980.55900000     
          12795       12796   702348.297000000        9323973.19500000     
          12795       12797   702348.297000000        9323973.19500000     
          12798       12799   702348.316000000        9323978.85500000     
          12798       12800   702348.316000000        9323978.85500000     
          12802       12803   702348.322000000        9323975.14600000     
          12802       12804   702348.322000000        9323975.14600000     
          12805       12806   702348.328000000        9323977.04200000     
          12805       12807   702348.328000000        9323977.04200000     
          12814       12815   702348.439000000        9324183.71200000     
          12814       12816   702348.439000000        9324183.71200000     
          12827       12828   702348.744000000        9323914.96400000     
          12827       12829   702348.744000000        9323914.96400000     
          12846       12847   702349.232000000        9323912.95000000     
          12846       12848   702349.232000000        9323912.95000000     
          12858       12860   702349.703000000        9323910.87000000     
          12858       12861   702349.703000000        9323910.87000000     
          12869       12870   702350.138000000        9323908.74900000     
          12869       12871   702350.138000000        9323908.74900000     
          12879       12880   702350.447000000        9324184.45900000     
          12879       12881   702350.447000000        9324184.45900000     
          12883       12884   702350.521000000        9323906.61500000     
          12883       12885   702350.521000000        9323906.61500000     
          12891       12892   702350.836000000        9323904.49200000     
          12891       12893   702350.836000000        9323904.49200000     
          12899       12900   702351.086000000        9323902.40400000     
          12899       12901   702351.086000000        9323902.40400000     
          12908       12909   702351.209000000        9323842.46200000     
          12908       12910   702351.209000000        9323842.46200000     
          12911       12912   702351.215000000        9323841.52200000     
          12911       12913   702351.215000000        9323841.52200000     
          12915       12916   702351.233000000        9323843.42700000     
          12915       12917   702351.233000000        9323843.42700000     
          12918       12919   702351.255000000        9323840.55800000     
          12918       12920   702351.255000000        9323840.55800000     
          12921       12922   702351.279000000        9323900.37400000     
          12921       12923   702351.279000000        9323900.37400000     
          12924       12925   702351.285000000        9323844.46400000     
          12924       12926   702351.285000000        9323844.46400000     
          12928       12930   702351.331000000        9323839.52500000     
          12928       12931   702351.331000000        9323839.52500000     
          12933       12934   702351.359000000        9323886.03500000     
          12933       12935   702351.359000000        9323886.03500000     
          12936       12937   702351.363000000        9323845.61900000     
          12936       12938   702351.363000000        9323845.61900000     
          12939       12940   702351.371000000        9323886.59800000     
          12939       12942   702351.371000000        9323886.59800000     
          12941       12943   702351.371000000        9323885.49800000     
          12941       12944   702351.371000000        9323885.49800000     
          12945       12946   702351.400000000        9323887.21200000     
          12945       12947   702351.400000000        9323887.21200000     
          12948       12949   702351.411000000        9323884.96400000     
          12948       12950   702351.411000000        9323884.96400000     
          12951       12952   702351.420000000        9323898.42300000     
          12951       12953   702351.420000000        9323898.42300000     
          12955       12956   702351.441000000        9323887.90100000     
          12955       12957   702351.441000000        9323887.90100000     
          12958       12959   702351.446000000        9323838.37400000     
          12958       12960   702351.446000000        9323838.37400000     
          12961       12962   702351.461000000        9323846.92600000     
          12961       12963   702351.461000000        9323846.92600000     
          12964       12965   702351.475000000        9323884.40500000     
          12964       12966   702351.475000000        9323884.40500000     
          12967       12968   702351.486000000        9323888.68700000     
          12967       12969   702351.486000000        9323888.68700000     
          12970       12971   702351.515000000        9323896.57500000     
          12970       12972   702351.515000000        9323896.57500000     
          12973       12974   702351.531000000        9323889.59500000     
          12973       12975   702351.531000000        9323889.59500000     
          12976       12977   702351.555000000        9323883.79400000     
          12976       12978   702351.555000000        9323883.79400000     
          12979       12980   702351.568000000        9323890.64800000     
          12979       12981   702351.568000000        9323890.64800000     
          12982       12983   702351.571000000        9323894.85200000     
          12982       12984   702351.571000000        9323894.85200000     
          12985       12986   702351.576000000        9323848.35600000     
          12985       12987   702351.576000000        9323848.35600000     
          12988       12989   702351.591000000        9323891.87000000     
          12988       12990   702351.591000000        9323891.87000000     
          12991       12992   702351.594000000        9323893.27600000     
          12991       12993   702351.594000000        9323893.27600000     
          12994       12995   702351.603000000        9323837.06000000     
          12994       12996   702351.603000000        9323837.06000000     
          12998       12999   702351.646000000        9323883.10200000     
          12998       13000   702351.646000000        9323883.10200000     
          13003       13004   702351.699000000        9323849.86700000     
          13003       13005   702351.699000000        9323849.86700000     
          13006       13007   702351.740000000        9323882.30200000     
          13006       13008   702351.740000000        9323882.30200000     
          13012       13013   702351.802000000        9323835.54600000     
          13012       13014   702351.802000000        9323835.54600000     
          13015       13016   702351.824000000        9323851.41700000     
          13015       13017   702351.824000000        9323851.41700000     
          13018       13019   702351.831000000        9323881.36500000     
          13018       13020   702351.831000000        9323881.36500000     
          13022       13023   702351.913000000        9323880.26300000     
          13022       13024   702351.913000000        9323880.26300000     
          13025       13026   702351.944000000        9323852.96300000     
          13025       13027   702351.944000000        9323852.96300000     
          13028       13029   702351.979000000        9323878.96800000     
          13028       13030   702351.979000000        9323878.96800000     
          13032       13033   702352.024000000        9323877.46700000     
          13032       13034   702352.024000000        9323877.46700000     
          13035       13036   702352.027000000        9323738.14400000     
          13035       13037   702352.027000000        9323738.14400000     
          13038       13039   702352.030000000        9323833.85000000     
          13038       13040   702352.030000000        9323833.85000000     
          13041       13042   702352.050000000        9323875.80000000     
          13041       13043   702352.050000000        9323875.80000000     
          13044       13045   702352.053000000        9323854.46300000     
          13044       13046   702352.053000000        9323854.46300000     
          13047       13048   702352.063000000        9323874.02300000     
          13047       13049   702352.063000000        9323874.02300000     
          13050       13051   702352.064000000        9323739.33400000     
          13050       13052   702352.064000000        9323739.33400000     
          13053       13057   702352.067000000        9323872.19100000     
          13053       13059   702352.067000000        9323872.19100000     
          13054       13056   702352.067000000        9323868.58600000     
          13054       13061   702352.067000000        9323868.58600000     
          13055       13058   702352.067000000        9323870.36000000     
          13055       13060   702352.067000000        9323870.36000000     
          13063       13065   702352.072000000        9323737.13700000     
          13063       13066   702352.072000000        9323737.13700000     
          13064       13067   702352.072000000        9323866.92200000     
          13064       13068   702352.072000000        9323866.92200000     
          13069       13070   702352.086000000        9323865.42600000     
          13069       13071   702352.086000000        9323865.42600000     
          13072       13073   702352.112000000        9323864.13400000     
          13072       13075   702352.112000000        9323864.13400000     
          13076       13077   702352.143000000        9323855.87400000     
          13076       13078   702352.143000000        9323855.87400000     
          13079       13080   702352.147000000        9323863.01400000     
          13079       13081   702352.147000000        9323863.01400000     
          13083       13084   702352.184000000        9323862.01800000     
          13083       13085   702352.184000000        9323862.01800000     
          13086       13087   702352.187000000        9323736.29700000     
          13086       13088   702352.187000000        9323736.29700000     
          13089       13090   702352.189000000        9323740.71900000     
          13089       13091   702352.189000000        9323740.71900000     
          13097       13098   702352.208000000        9323857.15400000     
          13097       13099   702352.208000000        9323857.15400000     
          13100       13101   702352.218000000        9323861.09600000     
          13100       13102   702352.218000000        9323861.09600000     
          13104       13105   702352.243000000        9323860.19800000     
          13104       13106   702352.243000000        9323860.19800000     
          13107       13108   702352.244000000        9323858.27600000     
          13107       13109   702352.244000000        9323858.27600000     
          13111       13112   702352.254000000        9323859.27400000     
          13111       13113   702352.254000000        9323859.27400000     
          13114       13115   702352.274000000        9323832.00000000     
          13114       13116   702352.274000000        9323832.00000000     
          13117       13118   702352.293000000        9323802.73800000     
          13117       13119   702352.293000000        9323802.73800000     
          13120       13121   702352.296000000        9323803.50600000     
          13120       13122   702352.296000000        9323803.50600000     
          13123       13125   702352.311000000        9323802.06800000     
          13123       13126   702352.311000000        9323802.06800000     
          13127       13128   702352.324000000        9323804.39600000     
          13127       13129   702352.324000000        9323804.39600000     
          13130       13131   702352.348000000        9323801.47000000     
          13130       13132   702352.348000000        9323801.47000000     
          13133       13134   702352.379000000        9323805.43300000     
          13133       13135   702352.379000000        9323805.43300000     
          13136       13137   702352.387000000        9323742.26100000     
          13136       13138   702352.387000000        9323742.26100000     
          13139       13140   702352.401000000        9323800.92100000     
          13139       13141   702352.401000000        9323800.92100000     
          13143       13144   702352.465000000        9323806.64100000     
          13143       13145   702352.465000000        9323806.64100000     
          13146       13147   702352.466000000        9323800.39500000     
          13146       13148   702352.466000000        9323800.39500000     
          13149       13150   702352.518000000        9323830.02700000     
          13149       13151   702352.518000000        9323830.02700000     
          13152       13153   702352.541000000        9323799.86800000     
          13152       13154   702352.541000000        9323799.86800000     
          13156       13157   702352.581000000        9323808.03800000     
          13156       13158   702352.581000000        9323808.03800000     
          13160       13161   702352.623000000        9323799.31600000     
          13160       13162   702352.623000000        9323799.31600000     
          13163       13164   702352.638000000        9323743.91000000     
          13163       13165   702352.638000000        9323743.91000000     
          13166       13167   702352.685000000        9324185.24400000     
          13166       13168   702352.685000000        9324185.24400000     
          13170       13171   702352.707000000        9323798.71300000     
          13170       13172   702352.707000000        9323798.71300000     
          13173       13174   702352.717000000        9323809.60900000     
          13173       13175   702352.717000000        9323809.60900000     
          13177       13178   702352.747000000        9323827.95800000     
          13177       13179   702352.747000000        9323827.95800000     
          13181       13182   702352.790000000        9323798.03600000     
          13181       13183   702352.790000000        9323798.03600000     
          13185       13186   702352.859000000        9323811.33300000     
          13185       13187   702352.859000000        9323811.33300000     
          13188       13189   702352.869000000        9323797.25900000     
          13188       13190   702352.869000000        9323797.25900000     
          13191       13192   702352.922000000        9323745.61500000     
          13191       13193   702352.922000000        9323745.61500000     
          13194       13195   702352.939000000        9323796.35900000     
          13194       13196   702352.939000000        9323796.35900000     
          13197       13198   702352.947000000        9323825.82400000     
          13197       13199   702352.947000000        9323825.82400000     
          13201       13202   702352.995000000        9323813.18700000     
          13201       13203   702352.995000000        9323813.18700000     
          13204       13205   702352.998000000        9323795.31000000     
          13204       13206   702352.998000000        9323795.31000000     
          13208       13209   702353.041000000        9323794.08900000     
          13208       13210   702353.041000000        9323794.08900000     
          13211       13212   702353.053000000        9323782.89200000     
          13211       13213   702353.053000000        9323782.89200000     
          13214       13215   702353.055000000        9323784.43600000     
          13214       13216   702353.055000000        9323784.43600000     
          13217       13218   702353.061000000        9323781.50100000     
          13217       13219   702353.061000000        9323781.50100000     
          13220       13221   702353.062000000        9323786.08100000     
          13220       13222   702353.062000000        9323786.08100000     
          13223       13224   702353.067000000        9323792.68200000     
          13223       13225   702353.067000000        9323792.68200000     
          13226       13227   702353.071000000        9323787.77800000     
          13226       13228   702353.071000000        9323787.77800000     
          13229       13231   702353.078000000        9323789.47700000     
          13229       13233   702353.078000000        9323789.47700000     
          13230       13232   702353.078000000        9323791.12900000     
          13230       13234   702353.078000000        9323791.12900000     
          13235       13236   702353.082000000        9323780.29400000     
          13235       13237   702353.082000000        9323780.29400000     
          13238       13239   702353.102000000        9323823.65200000     
          13238       13240   702353.102000000        9323823.65200000     
          13241       13242   702353.110000000        9323815.15000000     
          13241       13243   702353.110000000        9323815.15000000     
          13244       13245   702353.116000000        9323779.23900000     
          13244       13246   702353.116000000        9323779.23900000     
          13247       13248   702353.159000000        9323778.28400000     
          13247       13249   702353.159000000        9323778.28400000     
          13252       13253   702353.191000000        9323817.20000000     
          13252       13254   702353.191000000        9323817.20000000     
          13255       13256   702353.198000000        9323821.47400000     
          13255       13257   702353.198000000        9323821.47400000     
          13267       13268   702353.210000000        9323777.37900000     
          13267       13269   702353.210000000        9323777.37900000     
          13270       13271   702353.217000000        9323747.32600000     
          13270       13272   702353.217000000        9323747.32600000     
          13273       13274   702353.225000000        9323819.31500000     
          13273       13275   702353.225000000        9323819.31500000     
          13276       13277   702353.268000000        9323776.47400000     
          13276       13278   702353.268000000        9323776.47400000     
          13280       13281   702353.330000000        9323775.51800000     
          13280       13282   702353.330000000        9323775.51800000     
          13286       13287   702353.394000000        9323774.46000000     
          13286       13288   702353.394000000        9323774.46000000     
          13291       13292   702353.458000000        9323773.25100000     
          13291       13293   702353.458000000        9323773.25100000     
          13295       13296   702353.505000000        9323748.99300000     
          13295       13297   702353.505000000        9323748.99300000     
          13298       13299   702353.521000000        9323771.85600000     
          13298       13300   702353.521000000        9323771.85600000     
          13303       13304   702353.584000000        9323770.30800000     
          13303       13305   702353.584000000        9323770.30800000     
          13307       13308   702353.646000000        9323768.65600000     
          13307       13309   702353.646000000        9323768.65600000     
          13313       13314   702353.710000000        9323766.95200000     
          13313       13315   702353.710000000        9323766.95200000     
          13316       13317   702353.763000000        9323750.56500000     
          13316       13318   702353.763000000        9323750.56500000     
          13319       13320   702353.775000000        9323765.24300000     
          13319       13321   702353.775000000        9323765.24300000     
          13323       13324   702353.842000000        9323763.58000000     
          13323       13325   702353.842000000        9323763.58000000     
          13327       13328   702353.913000000        9323762.01300000     
          13327       13329   702353.913000000        9323762.01300000     
          13330       13331   702353.974000000        9323751.99100000     
          13330       13332   702353.974000000        9323751.99100000     
          13333       13334   702353.988000000        9323760.59000000     
          13333       13335   702353.988000000        9323760.59000000     
          13338       13339   702354.066000000        9323759.34600000     
          13338       13340   702354.066000000        9323759.34600000     
          13343       13344   702354.120000000        9323753.23900000     
          13343       13345   702354.120000000        9323753.23900000     
          13346       13347   702354.140000000        9323758.24800000     
          13346       13348   702354.140000000        9323758.24800000     
          13350       13351   702354.200000000        9323757.24700000     
          13350       13352   702354.200000000        9323757.24700000     
          13364       13365   702354.206000000        9323754.33900000     
          13364       13366   702354.206000000        9323754.33900000     
          13367       13368   702354.237000000        9323756.29500000     
          13367       13369   702354.237000000        9323756.29500000     
          13370       13371   702354.242000000        9323755.34100000     
          13370       13372   702354.242000000        9323755.34100000     
          13386       13387   702355.071000000        9324186.07900000     
          13386       13388   702355.071000000        9324186.07900000     
          13451       13452   702357.525000000        9324186.97500000     
          13451       13453   702357.525000000        9324186.97500000     
          13510       13511   702359.965000000        9324187.94400000     
          13510       13512   702359.965000000        9324187.94400000     
          13573       13574   702362.310000000        9324188.99700000     
          13573       13575   702362.310000000        9324188.99700000     
          13618       13619   702364.480000000        9324190.14400000     
          13618       13620   702364.480000000        9324190.14400000     
          13674       13675   702366.413000000        9324191.39600000     
          13674       13676   702366.413000000        9324191.39600000     
          13748       13749   702368.116000000        9324192.74400000     
          13748       13750   702368.116000000        9324192.74400000     
          13801       13802   702369.192000000        9323649.30700000     
          13801       13803   702369.192000000        9323649.30700000     
          13801       13804   702369.192000000        9323649.30700000     
          13834       13835   702369.618000000        9324194.18000000     
          13834       13836   702369.618000000        9324194.18000000     
          13893       13894   702370.946000000        9324195.69500000     
          13893       13895   702370.946000000        9324195.69500000     
          13913       13914   702371.294000000        9323652.92400000     
          13913       13915   702371.294000000        9323652.92400000     
          13913       13916   702371.294000000        9323652.92400000     
          13920       13922   702371.394000000        9323646.59900000     
          13952       13953   702372.128000000        9324197.28000000     
          13952       13954   702372.128000000        9324197.28000000     
          14001       14002   702373.044000000        9323655.65600000     
          14001       14003   702373.044000000        9323655.65600000     
          14001       14004   702373.044000000        9323655.65600000     
          14010       14011   702373.191000000        9324198.92400000     
          14010       14012   702373.191000000        9324198.92400000     
          14061       14062   702374.162000000        9324200.61900000     
          14061       14063   702374.162000000        9324200.61900000     
          14084       14085   702374.486000000        9323657.66800000     
          14084       14086   702374.486000000        9323657.66800000     
          14084       14087   702374.486000000        9323657.66800000     
          14108       14109   702375.069000000        9324202.35600000     
          14108       14110   702375.069000000        9324202.35600000     
          14142       14143   702375.665000000        9323659.12600000     
          14142       14144   702375.665000000        9323659.12600000     
          14142       14145   702375.665000000        9323659.12600000     
          14154       14155   702375.935000000        9324204.12600000     
          14154       14156   702375.935000000        9324204.12600000     
          14188       14189   702376.625000000        9323660.19600000     
          14188       14190   702376.625000000        9323660.19600000     
          14188       14191   702376.625000000        9323660.19600000     
          14200       14201   702376.771000000        9324205.92500000     
          14200       14202   702376.771000000        9324205.92500000     
          14236       14237   702377.411000000        9323661.04400000     
          14236       14238   702377.411000000        9323661.04400000     
          14236       14239   702377.411000000        9323661.04400000     
          14245       14246   702377.580000000        9324207.75000000     
          14245       14247   702377.580000000        9324207.75000000     
          14266       14267   702378.068000000        9323661.83500000     
          14266       14268   702378.068000000        9323661.83500000     
          14266       14269   702378.068000000        9323661.83500000     
          14286       14287   702378.369000000        9324209.60000000     
          14286       14288   702378.369000000        9324209.60000000     
          14299       14300   702378.640000000        9323662.73600000     
          14299       14301   702378.640000000        9323662.73600000     
          14299       14302   702378.640000000        9323662.73600000     
          14323       14324   702379.144000000        9324211.47200000     
          14323       14325   702379.144000000        9324211.47200000     
          14327       14328   702379.200000000        9323663.88400000     
          14327       14329   702379.200000000        9323663.88400000     
          14327       14330   702379.200000000        9323663.88400000     
          14361       14362   702379.909000000        9324213.36200000     
          14361       14363   702379.909000000        9324213.36200000     
          14365       14366   702379.930000000        9323665.30100000     
          14365       14367   702379.930000000        9323665.30100000     
          14365       14368   702379.930000000        9323665.30100000     
          14400       14401   702380.670000000        9324215.26900000     
          14400       14402   702380.670000000        9324215.26900000     
          14419       14420   702381.043000000        9323666.98100000     
          14419       14421   702381.043000000        9323666.98100000     
          14419       14422   702381.043000000        9323666.98100000     
          14438       14439   702381.433000000        9324217.19000000     
          14438       14440   702381.433000000        9324217.19000000     
          14469       14470   702382.199000000        9324219.11800000     
          14469       14471   702382.199000000        9324219.11800000     
          14495       14496   702382.748000000        9323668.91600000     
          14495       14497   702382.748000000        9323668.91600000     
          14495       14498   702382.748000000        9323668.91600000     
          14509       14510   702382.960000000        9324221.03500000     
          14509       14511   702382.960000000        9324221.03500000     
          14542       14543   702383.702000000        9324222.91900000     
          14542       14544   702383.702000000        9324222.91900000     
          14574       14575   702384.412000000        9324224.74700000     
          14574       14576   702384.412000000        9324224.74700000     
          14605       14606   702385.077000000        9324226.49700000     
          14605       14607   702385.077000000        9324226.49700000     
          14614       14615   702385.258000000        9323671.10100000     
          14614       14616   702385.258000000        9323671.10100000     
          14614       14617   702385.258000000        9323671.10100000     
          14639       14640   702385.685000000        9324228.14800000     
          14639       14641   702385.685000000        9324228.14800000     
          14667       14668   702386.221000000        9324229.67700000     
          14667       14669   702386.221000000        9324229.67700000     
          14683       14684   702386.674000000        9324231.06200000     
          14683       14685   702386.674000000        9324231.06200000     
          14699       14700   702387.034000000        9324232.28800000     
          14699       14701   702387.034000000        9324232.28800000     
          14711       14712   702387.312000000        9324233.36700000     
          14711       14713   702387.312000000        9324233.36700000     
          14720       14721   702387.519000000        9324234.32200000     
          14720       14722   702387.519000000        9324234.32200000     
          14728       14729   702387.671000000        9324235.17200000     
          14728       14730   702387.671000000        9324235.17200000     
          14731       14732   702387.780000000        9324235.93900000     
          14731       14733   702387.780000000        9324235.93900000     
          14736       14737   702387.860000000        9324236.64100000     
          14736       14738   702387.860000000        9324236.64100000     
          14741       14742   702387.925000000        9324237.30100000     
          14741       14743   702387.925000000        9324237.30100000     
          14745       14746   702387.988000000        9324237.93900000     
          14745       14747   702387.988000000        9324237.93900000     
          14751       14752   702388.064000000        9324238.57300000     
          14751       14753   702388.064000000        9324238.57300000     
          14760       14761   702388.170000000        9324239.21400000     
          14760       14762   702388.170000000        9324239.21400000     
          14764       14765   702388.326000000        9324239.87000000     
          14764       14766   702388.326000000        9324239.87000000     
          14773       14774   702388.552000000        9324240.55100000     
          14773       14775   702388.552000000        9324240.55100000     
          14785       14786   702388.783000000        9323673.52800000     
          14785       14787   702388.783000000        9323673.52800000     
          14785       14788   702388.783000000        9323673.52800000     
          14792       14793   702388.866000000        9324241.26500000     
          14792       14794   702388.866000000        9324241.26500000     
          14806       14807   702389.287000000        9324242.02000000     
          14806       14808   702389.287000000        9324242.02000000     
          14820       14821   702389.834000000        9324242.82600000     
          14820       14822   702389.834000000        9324242.82600000     
          14839       14840   702390.527000000        9324243.69000000     
          14839       14841   702390.527000000        9324243.69000000     
          14862       14863   702391.375000000        9324244.61800000     
          14862       14864   702391.375000000        9324244.61800000     
          14888       14889   702392.347000000        9324245.59700000     
          14888       14890   702392.347000000        9324245.59700000     
          14918       14919   702393.402000000        9324246.61000000     
          14918       14920   702393.402000000        9324246.61000000     
          14923       14924   702393.534000000        9323676.19100000     
          14923       14925   702393.534000000        9323676.19100000     
          14923       14926   702393.534000000        9323676.19100000     
          14948       14949   702394.501000000        9324247.64100000     
          14948       14950   702394.501000000        9324247.64100000     
          14972       14973   702395.601000000        9324248.67300000     
          14972       14974   702395.601000000        9324248.67300000     
          14998       14999   702396.662000000        9324249.68900000     
          14998       15000   702396.662000000        9324249.68900000     
          15020       15021   702397.645000000        9324250.67300000     
          15020       15022   702397.645000000        9324250.67300000     
          15035       15036   702398.507000000        9324251.60800000     
          15035       15037   702398.507000000        9324251.60800000     
          15051       15052   702399.225000000        9324252.48000000     
          15051       15053   702399.225000000        9324252.48000000     
          15061       15062   702399.723000000        9323679.08400000     
          15061       15063   702399.723000000        9323679.08400000     
          15061       15064   702399.723000000        9323679.08400000     
          15067       15068   702399.831000000        9324253.29000000     
          15067       15069   702399.831000000        9324253.29000000     
          15077       15078   702400.378000000        9324254.03700000     
          15077       15079   702400.378000000        9324254.03700000     
          15094       15095   702400.914000000        9324254.72600000     
          15094       15096   702400.914000000        9324254.72600000     
          15105       15106   702401.490000000        9324255.35800000     
          15105       15107   702401.490000000        9324255.35800000     
          15115       15116   702402.155000000        9324255.93500000     
          15115       15117   702402.155000000        9324255.93500000     
          15131       15132   702402.961000000        9324256.46000000     
          15131       15133   702402.961000000        9324256.46000000     
          15143       15144   702403.957000000        9324256.93400000     
          15143       15145   702403.957000000        9324256.93400000     
          15165       15166   702405.174000000        9324257.36200000     
          15165       15167   702405.174000000        9324257.36200000     
          15186       15187   702406.570000000        9324257.75300000     
          15186       15188   702406.570000000        9324257.75300000     
          15203       15204   702407.457000000        9323682.19100000     
          15203       15205   702407.457000000        9323682.19100000     
          15203       15206   702407.457000000        9323682.19100000     
          15212       15213   702408.083000000        9324258.12000000     
          15212       15214   702408.083000000        9324258.12000000     
          15235       15236   702409.653000000        9324258.47500000     
          15235       15237   702409.653000000        9324258.47500000     
          15256       15257   702411.217000000        9324258.83000000     
          15256       15258   702411.217000000        9324258.83000000     
          15277       15278   702412.715000000        9324259.19700000     
          15277       15279   702412.715000000        9324259.19700000     
          15298       15299   702414.085000000        9324259.58700000     
          15298       15300   702414.085000000        9324259.58700000     
          15320       15321   702415.266000000        9324260.01400000     
          15320       15322   702415.266000000        9324260.01400000     
          15335       15336   702416.219000000        9324260.48200000     
          15335       15337   702416.219000000        9324260.48200000     
          15341       15342   702416.428000000        9323685.46600000     
          15341       15343   702416.428000000        9323685.46600000     
          15341       15344   702416.428000000        9323685.46600000     
          15349       15350   702416.999000000        9324260.97200000     
          15349       15351   702416.999000000        9324260.97200000     
          15362       15363   702417.682000000        9324261.46000000     
          15362       15364   702417.682000000        9324261.46000000     
          15372       15373   702418.345000000        9324261.91900000     
          15372       15374   702418.345000000        9324261.91900000     
          15380       15381   702419.065000000        9324262.32400000     
          15380       15382   702419.065000000        9324262.32400000     
          15394       15395   702419.918000000        9324262.64900000     
          15394       15396   702419.918000000        9324262.64900000     
          15404       15405   702420.981000000        9324262.86900000     
          15404       15406   702420.981000000        9324262.86900000     
          15417       15418   702422.332000000        9324262.95800000     
          15417       15419   702422.332000000        9324262.95800000     
          15449       15450   702424.019000000        9324262.89900000     
          15449       15451   702424.019000000        9324262.89900000     
          15483       15484   702425.977000000        9324262.70100000     
          15483       15485   702425.977000000        9324262.70100000     
          15490       15491   702426.223000000        9323688.85300000     
          15490       15492   702426.223000000        9323688.85300000     
          15490       15493   702426.223000000        9323688.85300000     
          15524       15525   702428.116000000        9324262.38100000     
          15524       15526   702428.116000000        9324262.38100000     
          15568       15569   702430.342000000        9324261.95900000     
          15568       15570   702430.342000000        9324261.95900000     
          15594       15595   702432.565000000        9324261.45000000     
          15594       15596   702432.565000000        9324261.45000000     
          15634       15635   702434.691000000        9324260.87300000     
          15634       15636   702434.691000000        9324260.87300000     
          15652       15653   702436.431000000        9323692.29500000     
          15652       15654   702436.431000000        9323692.29500000     
          15652       15655   702436.431000000        9323692.29500000     
          15659       15660   702436.630000000        9324260.24500000     
          15659       15661   702436.630000000        9324260.24500000     
          15675       15676   702438.288000000        9324259.58300000     
          15675       15677   702438.288000000        9324259.58300000     
          15687       15688   702439.603000000        9324258.90400000     
          15687       15689   702439.603000000        9324258.90400000     
          15702       15703   702440.621000000        9324258.21500000     
          15702       15704   702440.621000000        9324258.21500000     
          15710       15711   702441.419000000        9324257.52300000     
          15710       15712   702441.419000000        9324257.52300000     
          15721       15722   702442.073000000        9324256.83500000     
          15721       15723   702442.073000000        9324256.83500000     
          15730       15731   702442.657000000        9324256.15500000     
          15730       15732   702442.657000000        9324256.15500000     
          15736       15737   702443.249000000        9324255.49200000     
          15736       15738   702443.249000000        9324255.49200000     
          15747       15748   702443.924000000        9324254.85000000     
          15747       15749   702443.924000000        9324254.85000000     
          15761       15762   702444.757000000        9324254.23700000     
          15761       15763   702444.757000000        9324254.23700000     
          15779       15780   702445.802000000        9324253.65700000     
          15779       15781   702445.802000000        9324253.65700000     
          15792       15793   702446.641000000        9323695.73800000     
          15792       15794   702446.641000000        9323695.73800000     
          15792       15795   702446.641000000        9323695.73800000     
          15799       15800   702447.027000000        9324253.10700000     
          15799       15801   702447.027000000        9324253.10700000     
          15833       15834   702448.377000000        9324252.58200000     
          15833       15835   702448.377000000        9324252.58200000     
          15859       15860   702449.797000000        9324252.07600000     
          15859       15861   702449.797000000        9324252.07600000     
          15887       15888   702451.231000000        9324251.58600000     
          15887       15889   702451.231000000        9324251.58600000     
          15928       15929   702452.625000000        9324251.10500000     
          15928       15930   702452.625000000        9324251.10500000     
          15960       15961   702453.925000000        9324250.63000000     
          15960       15962   702453.925000000        9324250.63000000     
          15989       15990   702455.074000000        9324250.15500000     
          15989       15991   702455.074000000        9324250.15500000     
          16005       16006   702456.035000000        9324249.67300000     
          16005       16007   702456.035000000        9324249.67300000     
          16017       16018   702456.440000000        9323699.12600000     
          16017       16019   702456.440000000        9323699.12600000     
          16017       16020   702456.440000000        9323699.12600000     
          16029       16030   702456.831000000        9324249.16800000     
          16029       16031   702456.831000000        9324249.16800000     
          16049       16050   702457.502000000        9324248.62400000     
          16049       16051   702457.502000000        9324248.62400000     
          16067       16068   702458.089000000        9324248.02000000     
          16067       16069   702458.089000000        9324248.02000000     
          16082       16083   702458.632000000        9324247.34100000     
          16082       16084   702458.632000000        9324247.34100000     
          16091       16092   702459.171000000        9324246.56700000     
          16091       16093   702459.171000000        9324246.56700000     
          16108       16109   702459.745000000        9324245.68100000     
          16108       16110   702459.745000000        9324245.68100000     
          16126       16127   702460.396000000        9324244.66600000     
          16126       16128   702460.396000000        9324244.66600000     
          16149       16150   702461.151000000        9324243.51200000     
          16149       16151   702461.151000000        9324243.51200000     
          16180       16181   702461.994000000        9324242.24800000     
          16180       16182   702461.994000000        9324242.24800000     
          16223       16224   702462.896000000        9324240.91000000     
          16223       16225   702462.896000000        9324240.91000000     
          16251       16252   702463.829000000        9324239.53600000     
          16251       16253   702463.829000000        9324239.53600000     
          16283       16284   702464.765000000        9324238.16400000     
          16283       16285   702464.765000000        9324238.16400000     
          16312       16313   702465.417000000        9323702.40400000     
          16312       16314   702465.417000000        9323702.40400000     
          16312       16315   702465.417000000        9323702.40400000     
          16323       16324   702465.674000000        9324236.82900000     
          16323       16325   702465.674000000        9324236.82900000     
          16351       16352   702466.528000000        9324235.57100000     
          16351       16353   702466.528000000        9324235.57100000     
          16377       16378   702467.300000000        9324234.42500000     
          16377       16379   702467.300000000        9324234.42500000     
          16406       16407   702467.966000000        9324233.41500000     
          16406       16408   702467.966000000        9324233.41500000     
          16429       16430   702468.529000000        9324232.51300000     
          16429       16431   702468.529000000        9324232.51300000     
          16443       16444   702468.997000000        9324231.67400000     
          16443       16445   702468.997000000        9324231.67400000     
          16462       16463   702469.379000000        9324230.85500000     
          16462       16464   702469.379000000        9324230.85500000     
          16470       16471   702469.684000000        9324230.01200000     
          16470       16472   702469.684000000        9324230.01200000     
          16481       16482   702469.918000000        9324229.10400000     
          16481       16483   702469.918000000        9324229.10400000     
          16486       16487   702470.092000000        9324228.08600000     
          16486       16488   702470.092000000        9324228.08600000     
          16490       16491   702470.213000000        9324226.91400000     
          16490       16492   702470.213000000        9324226.91400000     
[...]
          15736       15738   702443.249000000        9324255.49200000     
          15747       15748   702443.924000000        9324254.85000000     
          15747       15749   702443.924000000        9324254.85000000     
          15761       15762   702444.757000000        9324254.23700000     
          15761       15763   702444.757000000        9324254.23700000     
          15779       15780   702445.802000000        9324253.65700000     
          15779       15781   702445.802000000        9324253.65700000     
          15792       15793   702446.641000000        9323695.73800000     
          15792       15794   702446.641000000        9323695.73800000     
          15792       15795   702446.641000000        9323695.73800000     
          15799       15800   702447.027000000        9324253.10700000     
          15799       15801   702447.027000000        9324253.10700000     
          15833       15834   702448.377000000        9324252.58200000     
          15833       15835   702448.377000000        9324252.58200000     
          15859       15860   702449.797000000        9324252.07600000     
          15859       15861   702449.797000000        9324252.07600000     
          15887       15888   702451.231000000        9324251.58600000     
          15887       15889   702451.231000000        9324251.58600000     
          15928       15929   702452.625000000        9324251.10500000     
          15928       15930   702452.625000000        9324251.10500000     
          15960       15961   702453.925000000        9324250.63000000     
          15960       15962   702453.925000000        9324250.63000000     
          15989       15990   702455.074000000        9324250.15500000     
          15989       15991   702455.074000000        9324250.15500000     
          16005       16006   702456.035000000        9324249.67300000     
          16005       16007   702456.035000000        9324249.67300000     
          16017       16018   702456.440000000        9323699.12600000     
          16017       16019   702456.440000000        9323699.12600000     
          16017       16020   702456.440000000        9323699.12600000     
          16029       16030   702456.831000000        9324249.16800000     
          16029       16031   702456.831000000        9324249.16800000     
          16049       16050   702457.502000000        9324248.62400000     
          16049       16051   702457.502000000        9324248.62400000     
          16067       16068   702458.089000000        9324248.02000000     
          16067       16069   702458.089000000        9324248.02000000     
          16082       16083   702458.632000000        9324247.34100000     
          16082       16084   702458.632000000        9324247.34100000     
          16091       16092   702459.171000000        9324246.56700000     
          16091       16093   702459.171000000        9324246.56700000     
          16108       16109   702459.745000000        9324245.68100000     
          16108       16110   702459.745000000        9324245.68100000     
          16126       16127   702460.396000000        9324244.66600000     
          16126       16128   702460.396000000        9324244.66600000     
          16149       16150   702461.151000000        9324243.51200000     
          16149       16151   702461.151000000        9324243.51200000     
          16180       16181   702461.994000000        9324242.24800000     
          16180       16182   702461.994000000        9324242.24800000     
          16223       16224   702462.896000000        9324240.91000000     
          16223       16225   702462.896000000        9324240.91000000     
          16251       16252   702463.829000000        9324239.53600000     
          16251       16253   702463.829000000        9324239.53600000     
          16283       16284   702464.765000000        9324238.16400000     
          16283       16285   702464.765000000        9324238.16400000     
          16312       16313   702465.417000000        9323702.40400000     
          16312       16314   702465.417000000        9323702.40400000     
          16312       16315   702465.417000000        9323702.40400000     
          16323       16324   702465.674000000        9324236.82900000     
          16323       16325   702465.674000000        9324236.82900000     
          16351       16352   702466.528000000        9324235.57100000     
          16351       16353   702466.528000000        9324235.57100000     
          16377       16378   702467.300000000        9324234.42500000     
          16377       16379   702467.300000000        9324234.42500000     
          16406       16407   702467.966000000        9324233.41500000     
          16406       16408   702467.966000000        9324233.41500000     
          16429       16430   702468.529000000        9324232.51300000     
          16429       16431   702468.529000000        9324232.51300000     
          16443       16444   702468.997000000        9324231.67400000     
          16443       16445   702468.997000000        9324231.67400000     
          16462       16463   702469.379000000        9324230.85500000     
          16462       16464   702469.379000000        9324230.85500000     
          16470       16471   702469.684000000        9324230.01200000     
          16470       16472   702469.684000000        9324230.01200000     
          16481       16482   702469.918000000        9324229.10400000     
          16481       16483   702469.918000000        9324229.10400000     
          16486       16487   702470.092000000        9324228.08600000     
          16486       16488   702470.092000000        9324228.08600000     
          16490       16491   702470.213000000        9324226.91400000     
          16490       16492   702470.213000000        9324226.91400000     
          16494       16495   702470.292000000        9324225.56300000     
          16494       16496   702470.292000000        9324225.56300000     
          16505       16506   702470.340000000        9324224.06600000     
          16505       16507   702470.340000000        9324224.06600000     
          16509       16510   702470.375000000        9324222.47800000     
          16509       16511   702470.375000000        9324222.47800000     
          16512       16513   702470.409000000        9324220.84800000     
          16512       16514   702470.409000000        9324220.84800000     
          16518       16519   702470.459000000        9324219.22900000     
          16518       16520   702470.459000000        9324219.22900000     
          16522       16523   702470.538000000        9324217.67400000     
          16522       16524   702470.538000000        9324217.67400000     
          16529       16530   702470.662000000        9324216.23300000     
          16529       16531   702470.662000000        9324216.23300000     
          16539       16540   702470.845000000        9324214.95900000     
          16539       16541   702470.845000000        9324214.95900000     
          16549       16550   702471.096000000        9324213.88500000     
          16549       16551   702471.096000000        9324213.88500000     
          16570       16571   702471.399000000        9324212.97100000     
          16570       16572   702471.399000000        9324212.97100000     
          16582       16583   702471.730000000        9324212.16100000     
          16582       16584   702471.730000000        9324212.16100000     
          16588       16589   702471.890000000        9324188.49900000     
          16588       16590   702471.890000000        9324188.49900000     
          16591       16592   702471.910000000        9324190.52900000     
          16591       16593   702471.910000000        9324190.52900000     
          16596       16597   702471.926000000        9324186.55000000     
          16596       16598   702471.926000000        9324186.55000000     
          16600       16601   702471.988000000        9324192.61600000     
          16600       16602   702471.988000000        9324192.61600000     
          16603       16604   702472.016000000        9324184.70500000     
          16603       16605   702472.016000000        9324184.70500000     
          16609       16610   702472.066000000        9324211.39500000     
          16609       16611   702472.066000000        9324211.39500000     
          16612       16613   702472.124000000        9324194.73700000     
          16612       16614   702472.124000000        9324194.73700000     
          16616       16617   702472.156000000        9324182.98800000     
          16616       16618   702472.156000000        9324182.98800000     
          16625       16626   702472.301000000        9324196.85700000     
          16625       16627   702472.301000000        9324196.85700000     
          16636       16637   702472.345000000        9324181.42100000     
          16636       16638   702472.345000000        9324181.42100000     
          16640       16641   702472.385000000        9324210.61800000     
          16640       16642   702472.385000000        9324210.61800000     
          16648       16649   702472.496000000        9324198.94300000     
          16648       16650   702472.496000000        9324198.94300000     
          16652       16653   702472.580000000        9324180.02800000     
          16652       16654   702472.580000000        9324180.02800000     
          16657       16658   702472.664000000        9324209.77000000     
          16657       16659   702472.664000000        9324209.77000000     
          16660       16661   702472.689000000        9324200.95900000     
          16660       16662   702472.689000000        9324200.95900000     
          16665       16666   702472.858000000        9324178.83200000     
          16665       16668   702472.858000000        9324178.83200000     
          16667       16669   702472.858000000        9324202.87100000     
          16667       16670   702472.858000000        9324202.87100000     
          16673       16674   702472.881000000        9324208.79400000     
          16673       16675   702472.881000000        9324208.79400000     
          16681       16682   702472.982000000        9324204.64300000     
          16681       16683   702472.982000000        9324204.64300000     
          16686       16687   702473.011000000        9324207.63200000     
          16686       16688   702473.011000000        9324207.63200000     
          16690       16691   702473.040000000        9324206.24200000     
          16690       16692   702473.040000000        9324206.24200000     
          16699       16700   702473.159000000        9323705.51500000     
          16699       16701   702473.159000000        9323705.51500000     
          16699       16702   702473.159000000        9323705.51500000     
          16703       16704   702473.175000000        9324177.84300000     
          16703       16705   702473.175000000        9324177.84300000     
          16720       16721   702473.527000000        9324177.01600000     
          16720       16722   702473.527000000        9324177.01600000     
          16737       16738   702473.905000000        9324176.29300000     
          16737       16739   702473.905000000        9324176.29300000     
          16746       16747   702474.305000000        9324175.61600000     
          16746       16748   702474.305000000        9324175.61600000     
          16769       16770   702474.718000000        9324174.92800000     
          16769       16771   702474.718000000        9324174.92800000     
          16783       16784   702475.139000000        9324174.17100000     
          16783       16785   702475.139000000        9324174.17100000     
          16809       16810   702475.561000000        9324173.28700000     
          16809       16811   702475.561000000        9324173.28700000     
          16832       16833   702475.978000000        9324172.21700000     
          16832       16834   702475.978000000        9324172.21700000     
          16848       16849   702476.403000000        9324170.92200000     
          16848       16850   702476.403000000        9324170.92200000     
          16866       16867   702476.938000000        9324169.42500000     
          16866       16868   702476.938000000        9324169.42500000     
          16893       16894   702477.702000000        9324167.76900000     
          16893       16895   702477.702000000        9324167.76900000     
          16931       16932   702478.817000000        9324165.99600000     
          16931       16933   702478.817000000        9324165.99600000     
          16957       16958   702479.357000000        9323708.41300000     
          16957       16959   702479.357000000        9323708.41300000     
          16957       16960   702479.357000000        9323708.41300000     
          16992       16993   702480.403000000        9324164.14800000     
          16992       16994   702480.403000000        9324164.14800000     
          17070       17071   702482.582000000        9324162.26700000     
          17070       17072   702482.582000000        9324162.26700000     
          17107       17108   702484.111000000        9323711.09000000     
          17107       17109   702484.111000000        9323711.09000000     
          17107       17110   702484.111000000        9323711.09000000     
          17151       17152   702485.475000000        9324160.39400000     
          17151       17153   702485.475000000        9324160.39400000     
          17205       17206   702487.622000000        9323713.54500000     
          17205       17207   702487.622000000        9323713.54500000     
          17205       17208   702487.622000000        9323713.54500000     
          17254       17255   702489.201000000        9324158.57200000     
          17254       17256   702489.201000000        9324158.57200000     
          17275       17276   702490.091000000        9323715.77900000     
          17275       17277   702490.091000000        9323715.77900000     
          17275       17278   702490.091000000        9323715.77900000     
          17275       17279   702490.091000000        9323715.77900000     
          17362       17363   702493.823000000        9324156.83300000     
          17362       17364   702493.823000000        9324156.83300000     
          17474       17475   702499.159000000        9324155.17400000     
          17474       17476   702499.159000000        9324155.17400000     
          17580       17581   702504.967000000        9324153.58300000     
          17580       17582   702504.967000000        9324153.58300000     
          17687       17688   702511.005000000        9324152.04700000     
          17687       17689   702511.005000000        9324152.04700000     
          17759       17760   702517.032000000        9324150.55500000     
          17759       17761   702517.032000000        9324150.55500000     
          17823       17824   702522.807000000        9324149.09300000     
          17823       17825   702522.807000000        9324149.09300000     
          17885       17886   702528.088000000        9324147.65000000     
          17885       17887   702528.088000000        9324147.65000000     
          17946       17947   702532.633000000        9324146.21300000     
          17946       17948   702532.633000000        9324146.21300000     
          17973       17974   702534.065000000        9324106.83200000     
          17973       17975   702534.065000000        9324106.83200000     
          17988       17989   702535.004000000        9324109.31200000     
          17988       17990   702535.004000000        9324109.31200000     
          18009       18010   702535.983000000        9324111.93800000     
          18009       18011   702535.983000000        9324111.93800000     
          18016       18017   702536.261000000        9324144.77400000     
          18016       18018   702536.261000000        9324144.77400000     
          18036       18037   702536.979000000        9324114.63300000     
          18036       18038   702536.979000000        9324114.63300000     
          18062       18063   702537.967000000        9324117.32200000     
          18062       18064   702537.967000000        9324117.32200000     
          18086       18087   702538.923000000        9324119.92900000     
          18086       18088   702538.923000000        9324119.92900000     
          18090       18091   702539.024000000        9324143.34000000     
          18090       18092   702539.024000000        9324143.34000000     
          18108       18109   702539.823000000        9324122.37800000     
          18108       18110   702539.823000000        9324122.37800000     
          18137       18138   702540.641000000        9324124.59400000     
          18137       18139   702540.641000000        9324124.59400000     
          18145       18146   702541.038000000        9324141.92000000     
          18145       18147   702541.038000000        9324141.92000000     
          18155       18156   702541.360000000        9324126.52100000     
          18155       18157   702541.360000000        9324126.52100000     
          18178       18179   702541.978000000        9324128.18600000     
          18178       18180   702541.978000000        9324128.18600000     
          18195       18196   702542.416000000        9324140.52600000     
          18195       18197   702542.416000000        9324140.52600000     
          18200       18201   702542.500000000        9324129.64000000     
          18200       18202   702542.500000000        9324129.64000000     
          18210       18211   702542.932000000        9324130.92900000     
          18210       18212   702542.932000000        9324130.92900000     
          18219       18220   702543.272000000        9324139.16800000     
          18219       18221   702543.272000000        9324139.16800000     
          18222       18223   702543.277000000        9324132.10300000     
          18222       18224   702543.277000000        9324132.10300000     
          18240       18241   702543.541000000        9324133.21000000     
          18240       18242   702543.541000000        9324133.21000000     
          18251       18252   702543.719000000        9324137.85600000     
          18251       18253   702543.719000000        9324137.85600000     
          18254       18255   702543.728000000        9324134.29800000     
          18254       18256   702543.728000000        9324134.29800000     
          18258       18259   702543.844000000        9324135.41600000     
          18258       18260   702543.844000000        9324135.41600000     
          18261       18262   702543.872000000        9324136.60200000     
          18261       18263   702543.872000000        9324136.60200000     
          20661       20662   702627.574000000        9328013.90600000     
          24233       24234   702779.040000000        9328109.65400000     
          25151       25152   702846.277000000        9328119.19600000     
          25665       25666   702864.331000000        9328072.88400000     
          26955       26956   702929.555000000        9328070.27500000     
          27793       27794   703010.647000000        9323340.93100000     
          31837       31838   703579.819000000        9324692.13800000     
          37188       37189   704378.508000000        9323352.32700000     
          41539       41540   705073.121000000        9327263.26800000     
End listing of removed samples
You saved file: D:\ANCOL\Hidrodinamika\Extreme_wave\__INPUT\L2_wave_master04.dep
