*
* Deltares, Delft3D-RGFGRID Version 4.18.01.18383, Sep  7 2011, 14:23:22
* File creation date: 2026-02-10, 16:51:28
*
You opened file: D:\ANCOL\Hidrodinamika\Extreme_wave\__INPUT\Batimetri_Ancol_UTM_29APR2020.xyz
