1                                                                     
                                                                      
                    Execution started at 20260225.174313              
                                                                      
                                                                      
                                                                      
                    ---------------------------------------           
                                     SWAN                             
                    SIMULATION OF WAVES IN NEAR SHORE AREAS           
                    DELTARES VERSION NUMBER 40.72ABCDE                
                    ---------------------------------------           
                                                                      
                                                                      
                                                                      
  $***************************** HEADING *********************************
                                                                      
  $                                                                   
                                                                      
  PROJECT  '                '  '    '                                 
                                                                      
      '                                                                        '
                                                                      
      '                                                                        '
                                                                      
      '                                                                        '
                                                                      
  $                                                                   
                                                                      
  $***************************** MODEL INPUT *****************************
                                                                      
  $                                                                   
                                                                      
  SET   LEVEL =   0.00  NOR =  90.00    DEPMIN =   0.01 _             
         MAXMES = 1000   MAXERR = 2 _                                 
        GRAV =    9.81  RHO =  1025.00  INRHOG =      1 _             
        NAUT                                                          
                                                                      
  $                                                                   
                                                                      
  MODE NONST                                                          
                                                                      
  CGRID CURV   82   92          EXCEPT  0.0    0.0         _          
        CIR                         36       0.03       1.00  180     
 Resolution in sigma-space: df/f =  0.0197                            
                                                                      
  $                                                                   
                                                                      
  READ COOR 1. 'TMP_grid2swan01' _                                    
   4   0   1 FREE                                                     
 **  Heading lines  **                                                
 -> x-coordinates                                                     
 **  Heading lines  **                                                
 -> y-coordinates                                                     
                                                                      
  $                                                                   
                                                                      
  INPGRID _                                                           
  BOTTOM CURV 0. 0.   82   92                                         
                                                                      
  READINP BOTTOM 1.0   'BOTNOW' 4 0 FREE                              
                                                                      
  $                                                                   
                                                                      
  $                                                                   
                                                                      
  $                                                                   
                                                                      
  $                                                                   
                                                                      
  WIND  VEL=     13.23 DIR=    337.50                                 
                                                                      
  $                                                                   
                                                                      
  $                                                                   
                                                                      
  BOUN SHAPE JONSWAP   3.30 PEAK DSPR DEGR                            
                                                                      
  BOUN SIDE NW CCW     _                                              
 ** Warning          :  keyword SIDE should not be used for curvilinear grid
                      CON  PAR     2.62    6.72  337.50   20.00       
                                                                      
  $                                                                   
                                                                      
  GEN3                                                                
                                                                      
  BREAK CON       1.00    0.73                                        
                                                                      
  FRIC JON      0.0380                                                
                                                                      
  LIM  10 1                                                           
                                                                      
  NUM DIR cdd=   0.50 SIGIM css=   0.50                               
                                                                      
  $                                                                   
                                                                      
  NUM ACCUR        0.020    0.020    0.020   98.000   15              
                                                                      
  OBST TRANS  0.000                                        LIN _      
                0.70565118750000000E+06      0.93238350000000000E+07     _
                0.70559993750000000E+06      0.93238560000000000E+07     _
                0.70553375000000000E+06      0.93238550000000000E+07     _
                0.70546831250000000E+06      0.93238160000000000E+07     _
                0.70542112500000000E+06      0.93237820000000000E+07     _
                0.70538531250000000E+06      0.93237470000000000E+07     _
                0.70525731250000000E+06      0.93236910000000000E+07     _
                0.70518012500000000E+06      0.93236330000000000E+07     _
                0.70513931250000000E+06      0.93235750000000000E+07     _
                0.70513568750000000E+06      0.93235710000000000E+07     _
                0.70511831250000000E+06      0.93235620000000000E+07     _
                0.70510793750000000E+06      0.93235580000000000E+07     _
                0.70510106250000000E+06      0.93235590000000000E+07     _
                0.70509087500000000E+06      0.93235530000000000E+07     _
                0.70508006250000000E+06      0.93235510000000000E+07     _
                0.70506787500000000E+06      0.93235490000000000E+07     _
                0.70505712500000000E+06      0.93235520000000000E+07     _
                0.70504837500000000E+06      0.93235530000000000E+07     _
                0.70504150000000000E+06      0.93235520000000000E+07     _
                0.70503100000000000E+06      0.93235520000000000E+07     _
                0.70501881250000000E+06      0.93235540000000000E+07     _
                0.70500793750000000E+06      0.93235530000000000E+07     _
                0.70499550000000000E+06      0.93235500000000000E+07     _
                0.70498525000000000E+06      0.93235500000000000E+07     _
                0.70497325000000000E+06      0.93235480000000000E+07     _
                0.70496343750000000E+06      0.93235480000000000E+07     _
                0.70495368750000000E+06      0.93235460000000000E+07     _
                0.70494300000000000E+06      0.93235440000000000E+07     _
                0.70493293750000000E+06      0.93235400000000000E+07     _
                0.70492275000000000E+06      0.93235370000000000E+07     _
                0.70491343750000000E+06      0.93235320000000000E+07     _
                0.70490212500000000E+06      0.93235270000000000E+07     _
                0.70489212500000000E+06      0.93235220000000000E+07     _
                0.70488212500000000E+06      0.93235180000000000E+07     _
                0.70487025000000000E+06      0.93235140000000000E+07     _
                0.70485918750000000E+06      0.93235120000000000E+07     _
                0.70484862500000000E+06      0.93235090000000000E+07     _
                0.70483568750000000E+06      0.93235030000000000E+07     _
                0.70482418750000000E+06      0.93234980000000000E+07     _
                0.70481006250000000E+06      0.93234960000000000E+07     _
                0.70479818750000000E+06      0.93234940000000000E+07     _
                0.70478600000000000E+06      0.93234940000000000E+07     _
                0.70477437500000000E+06      0.93234930000000000E+07     _
                0.70476025000000000E+06      0.93234890000000000E+07     _
                0.70474762500000000E+06      0.93234840000000000E+07     _
                0.70473550000000000E+06      0.93234810000000000E+07     _
                0.70472256250000000E+06      0.93234750000000000E+07     _
                0.70471025000000000E+06      0.93234680000000000E+07     _
                0.70469806250000000E+06      0.93234620000000000E+07     _
                0.70468600000000000E+06      0.93234610000000000E+07     _
                0.70467300000000000E+06      0.93234580000000000E+07     _
                0.70466193750000000E+06      0.93234580000000000E+07     _
                0.70464706250000000E+06      0.93234620000000000E+07     _
                0.70463506250000000E+06      0.93234680000000000E+07     _
                0.70462118750000000E+06      0.93234730000000000E+07     _
                0.70461025000000000E+06      0.93234850000000000E+07     _
                0.70460387500000000E+06      0.93234910000000000E+07     _
                0.70460187500000000E+06      0.93234920000000000E+07     _
                0.70459800000000000E+06      0.93234940000000000E+07     _
                0.70459406250000000E+06      0.93234960000000000E+07     _
                0.70459012500000000E+06      0.93234980000000000E+07     _
                0.70458612500000000E+06      0.93235000000000000E+07     _
                0.70458212500000000E+06      0.93235020000000000E+07     _
                0.70457806250000000E+06      0.93235040000000000E+07     _
                0.70457400000000000E+06      0.93235060000000000E+07     _
                0.70456993750000000E+06      0.93235080000000000E+07     _
                0.70456575000000000E+06      0.93235090000000000E+07     _
                0.70456162500000000E+06      0.93235110000000000E+07     _
                0.70455743750000000E+06      0.93235120000000000E+07     _
                0.70455318750000000E+06      0.93235140000000000E+07     _
                0.70454893750000000E+06      0.93235150000000000E+07     _
                0.70454468750000000E+06      0.93235160000000000E+07     _
                0.70454037500000000E+06      0.93235180000000000E+07     _
                0.70453612500000000E+06      0.93235190000000000E+07     _
                0.70453175000000000E+06      0.93235200000000000E+07     _
                0.70452743750000000E+06      0.93235210000000000E+07     _
                0.70452306250000000E+06      0.93235220000000000E+07     _
                0.70451868750000000E+06      0.93235220000000000E+07     _
                0.70451431250000000E+06      0.93235230000000000E+07     _
                0.70450987500000000E+06      0.93235240000000000E+07     _
                0.70450550000000000E+06      0.93235240000000000E+07     _
                0.70450106250000000E+06      0.93235250000000000E+07     _
                0.70449662500000000E+06      0.93235250000000000E+07     _
                0.70449218750000000E+06      0.93235260000000000E+07     _
                0.70448775000000000E+06      0.93235260000000000E+07     _
                0.70448331250000000E+06      0.93235260000000000E+07     _
                0.70447887500000000E+06      0.93235260000000000E+07     _
                0.70447443750000000E+06      0.93235260000000000E+07     _
                0.70447000000000000E+06      0.93235260000000000E+07     _
                0.70446550000000000E+06      0.93235260000000000E+07     _
                0.70446106250000000E+06      0.93235260000000000E+07     _
                0.70445662500000000E+06      0.93235260000000000E+07     _
                0.70445218750000000E+06      0.93235260000000000E+07     _
                0.70444775000000000E+06      0.93235250000000000E+07     _
                0.70444337500000000E+06      0.93235250000000000E+07     _
                0.70443893750000000E+06      0.93235240000000000E+07     _
                0.70443456250000000E+06      0.93235230000000000E+07     _
                0.70443012500000000E+06      0.93235230000000000E+07     _
                0.70442575000000000E+06      0.93235220000000000E+07     _
                0.70442143750000000E+06      0.93235210000000000E+07     _
                0.70441706250000000E+06      0.93235200000000000E+07     _
                0.70441275000000000E+06      0.93235190000000000E+07     _
                0.70440843750000000E+06      0.93235180000000000E+07     _
                0.70440412500000000E+06      0.93235170000000000E+07     _
                0.70439987500000000E+06      0.93235150000000000E+07     _
                0.70439562500000000E+06      0.93235140000000000E+07     _
                0.70439137500000000E+06      0.93235130000000000E+07     _
                0.70438718750000000E+06      0.93235110000000000E+07     _
                0.70438300000000000E+06      0.93235100000000000E+07     _
                0.70437887500000000E+06      0.93235080000000000E+07     _
                0.70437475000000000E+06      0.93235060000000000E+07     _
                0.70437068750000000E+06      0.93235050000000000E+07     _
                0.70436662500000000E+06      0.93235030000000000E+07     _
                0.70436262500000000E+06      0.93235010000000000E+07     _
                0.70435862500000000E+06      0.93234990000000000E+07     _
                0.70435468750000000E+06      0.93234970000000000E+07     _
                0.70435075000000000E+06      0.93234950000000000E+07     _
                0.70434687500000000E+06      0.93234930000000000E+07     _
                0.70434306250000000E+06      0.93234900000000000E+07     _
                0.70433925000000000E+06      0.93234880000000000E+07     _
                0.70433550000000000E+06      0.93234860000000000E+07     _
                0.70433175000000000E+06      0.93234830000000000E+07     _
                0.70432812500000000E+06      0.93234810000000000E+07     _
                0.70432450000000000E+06      0.93234780000000000E+07     _
                0.70432087500000000E+06      0.93234750000000000E+07     _
                0.70431737500000000E+06      0.93234730000000000E+07     _
                0.70431387500000000E+06      0.93234700000000000E+07     _
                0.70431043750000000E+06      0.93234670000000000E+07     _
                0.70430706250000000E+06      0.93234640000000000E+07     _
                0.70430368750000000E+06      0.93234610000000000E+07     _
                0.70430043750000000E+06      0.93234580000000000E+07     _
                0.70429718750000000E+06      0.93234550000000000E+07     _
                0.70429400000000000E+06      0.93234520000000000E+07     _
                0.70429087500000000E+06      0.93234490000000000E+07     _
                0.70428462500000000E+06      0.93234420000000000E+07     _
                0.70428518750000000E+06      0.93234340000000000E+07     _
                0.70392350000000000E+06      0.93233140000000000E+07     _
                0.70382837500000000E+06      0.93233600000000000E+07     _
                0.70378500000000000E+06      0.93235900000000000E+07     _
                0.70376893750000000E+06      0.93236760000000000E+07     _
                0.70375287500000000E+06      0.93237620000000000E+07     _
                0.70372037500000000E+06      0.93239450000000000E+07     _
                0.70367893750000000E+06      0.93241690000000000E+07     _
                0.70367887500000000E+06      0.93241690000000000E+07     _
                0.70367875000000000E+06      0.93241690000000000E+07     _
                0.70367862500000000E+06      0.93241700000000000E+07     _
                0.70367850000000000E+06      0.93241710000000000E+07     _
                0.70367843750000000E+06      0.93241710000000000E+07     _
                0.70367837500000000E+06      0.93241720000000000E+07     _
                0.70367831250000000E+06      0.93241730000000000E+07     _
                0.70367831250000000E+06      0.93241730000000000E+07     _
                0.70367831250000000E+06      0.93241740000000000E+07     _
                0.70367837500000000E+06      0.93241740000000000E+07     _
                0.70367843750000000E+06      0.93241750000000000E+07     _
                0.70367850000000000E+06      0.93241760000000000E+07     _
                0.70367856250000000E+06      0.93241760000000000E+07     _
                0.70367868750000000E+06      0.93241770000000000E+07     _
                0.70367881250000000E+06      0.93241780000000000E+07     _
                0.70367900000000000E+06      0.93241780000000000E+07     _
                0.70367918750000000E+06      0.93241790000000000E+07     _
                0.70367937500000000E+06      0.93241790000000000E+07     _
                0.70367956250000000E+06      0.93241800000000000E+07     _
                0.70367981250000000E+06      0.93241800000000000E+07     _
                0.70368006250000000E+06      0.93241810000000000E+07     _
                0.70368037500000000E+06      0.93241820000000000E+07     _
                0.70368068750000000E+06      0.93241820000000000E+07     _
                0.70368100000000000E+06      0.93241830000000000E+07     _
                0.70368131250000000E+06      0.93241830000000000E+07     _
                0.70368168750000000E+06      0.93241840000000000E+07     _
                0.70368206250000000E+06      0.93241840000000000E+07     _
                0.70368243750000000E+06      0.93241850000000000E+07     _
                0.70368287500000000E+06      0.93241850000000000E+07     _
                0.70368331250000000E+06      0.93241860000000000E+07     _
                0.70368375000000000E+06      0.93241860000000000E+07     _
                0.70368418750000000E+06      0.93241870000000000E+07     _
                0.70368462500000000E+06      0.93241870000000000E+07     _
                0.70368512500000000E+06      0.93241870000000000E+07     _
                0.70368562500000000E+06      0.93241880000000000E+07     _
                0.70368612500000000E+06      0.93241880000000000E+07     _
                0.70368668750000000E+06      0.93241890000000000E+07     _
                0.70368718750000000E+06      0.93241890000000000E+07     _
                0.70368775000000000E+06      0.93241890000000000E+07     _
                0.70368831250000000E+06      0.93241890000000000E+07     _
                0.70368887500000000E+06      0.93241900000000000E+07     _
                0.70368950000000000E+06      0.93241900000000000E+07     _
                0.70369006250000000E+06      0.93241900000000000E+07     _
                0.70369062500000000E+06      0.93241900000000000E+07     _
                0.70369125000000000E+06      0.93241910000000000E+07     _
                0.70369187500000000E+06      0.93241910000000000E+07     _
                0.70369243750000000E+06      0.93241910000000000E+07     _
                0.70369306250000000E+06      0.93241910000000000E+07     _
                0.70369368750000000E+06      0.93241910000000000E+07     _
                0.70369431250000000E+06      0.93241910000000000E+07     _
                0.70369493750000000E+06      0.93241910000000000E+07     _
                0.70369556250000000E+06      0.93241910000000000E+07     _
                0.70369618750000000E+06      0.93241910000000000E+07     _
                0.70369681250000000E+06      0.93241910000000000E+07     _
                0.70369750000000000E+06      0.93241910000000000E+07     _
                0.70369812500000000E+06      0.93241910000000000E+07     _
                0.70369875000000000E+06      0.93241910000000000E+07     _
                0.70369937500000000E+06      0.93241910000000000E+07     _
                0.70369993750000000E+06      0.93241910000000000E+07     _
                0.70370056250000000E+06      0.93241910000000000E+07     _
                0.70370118750000000E+06      0.93241910000000000E+07     _
                0.70370181250000000E+06      0.93241900000000000E+07     _
                0.70370237500000000E+06      0.93241900000000000E+07     _
                0.70370300000000000E+06      0.93241900000000000E+07     _
                0.70370356250000000E+06      0.93241900000000000E+07     _
                0.70370412500000000E+06      0.93241900000000000E+07     _
                0.70370468750000000E+06      0.93241890000000000E+07     _
                0.70370525000000000E+06      0.93241890000000000E+07     _
                0.70370581250000000E+06      0.93241890000000000E+07     _
                0.70370631250000000E+06      0.93241880000000000E+07     _
                0.70370681250000000E+06      0.93241880000000000E+07     _
                0.70370737500000000E+06      0.93241880000000000E+07     _
                0.70370781250000000E+06      0.93241870000000000E+07     _
                0.70370831250000000E+06      0.93241870000000000E+07     _
                0.70370875000000000E+06      0.93241860000000000E+07     _
                0.70370925000000000E+06      0.93241860000000000E+07     _
                0.70370968750000000E+06      0.93241850000000000E+07     _
                0.70371006250000000E+06      0.93241850000000000E+07     _
                0.70371050000000000E+06      0.93241850000000000E+07     _
                0.70371087500000000E+06      0.93241840000000000E+07     _
                0.70371125000000000E+06      0.93241830000000000E+07     _
                0.70371156250000000E+06      0.93241830000000000E+07     _
                0.70371187500000000E+06      0.93241820000000000E+07     _
                0.70371218750000000E+06      0.93241820000000000E+07     _
                0.70371250000000000E+06      0.93241810000000000E+07     _
                0.70371275000000000E+06      0.93241810000000000E+07     _
                0.70371300000000000E+06      0.93241800000000000E+07     _
                0.70371325000000000E+06      0.93241800000000000E+07     _
                0.70371343750000000E+06      0.93241790000000000E+07     _
                0.70371362500000000E+06      0.93241780000000000E+07     _
                0.70371381250000000E+06      0.93241780000000000E+07     _
                0.70371393750000000E+06      0.93241770000000000E+07     _
                0.70371406250000000E+06      0.93241770000000000E+07     _
                0.70371418750000000E+06      0.93241760000000000E+07     _
                0.70371425000000000E+06      0.93241750000000000E+07     _
                0.70371431250000000E+06      0.93241750000000000E+07     _
                0.70371437500000000E+06      0.93241740000000000E+07     _
                0.70371437500000000E+06      0.93241730000000000E+07     _
                0.70371437500000000E+06      0.93241730000000000E+07     _
                0.70371437500000000E+06      0.93241720000000000E+07     _
                0.70371431250000000E+06      0.93241720000000000E+07     _
                0.70371425000000000E+06      0.93241710000000000E+07     _
                0.70371412500000000E+06      0.93241700000000000E+07     _
                0.70371400000000000E+06      0.93241700000000000E+07     _
                0.70371387500000000E+06      0.93241690000000000E+07     _
                0.70371375000000000E+06      0.93241680000000000E+07     _
                0.70371356250000000E+06      0.93241680000000000E+07     _
                0.70371337500000000E+06      0.93241670000000000E+07     _
                0.70371312500000000E+06      0.93241670000000000E+07     _
                0.70371287500000000E+06      0.93241660000000000E+07     _
                0.70371262500000000E+06      0.93241660000000000E+07     _
                0.70371237500000000E+06      0.93241650000000000E+07     _
                0.70371206250000000E+06      0.93241640000000000E+07     _
                0.70371175000000000E+06      0.93241640000000000E+07     _
                0.70371137500000000E+06      0.93241630000000000E+07     _
                0.70371106250000000E+06      0.93241630000000000E+07     _
                0.70378143750000000E+06      0.93237670000000000E+07     _
                0.70379600000000000E+06      0.93236810000000000E+07     _
                0.70381056250000000E+06      0.93235950000000000E+07     _
                0.70384837500000000E+06      0.93233780000000000E+07     _
                0.70392525000000000E+06      0.93233410000000000E+07     _
                0.70427806250000000E+06      0.93234580000000000E+07     _
                0.70428031250000000E+06      0.93234510000000000E+07     _
                0.70428437500000000E+06      0.93234550000000000E+07     _
                0.70428762500000000E+06      0.93234580000000000E+07     _
                0.70429093750000000E+06      0.93234620000000000E+07     _
                0.70429425000000000E+06      0.93234650000000000E+07     _
                0.70429768750000000E+06      0.93234680000000000E+07     _
                0.70430112500000000E+06      0.93234710000000000E+07     _
                0.70430462500000000E+06      0.93234740000000000E+07     _
                0.70430818750000000E+06      0.93234770000000000E+07     _
                0.70431181250000000E+06      0.93234800000000000E+07     _
                0.70431543750000000E+06      0.93234830000000000E+07     _
                0.70431918750000000E+06      0.93234850000000000E+07     _
                0.70432293750000000E+06      0.93234880000000000E+07     _
                0.70432675000000000E+06      0.93234910000000000E+07     _
                0.70433056250000000E+06      0.93234930000000000E+07     _
                0.70433443750000000E+06      0.93234960000000000E+07     _
                0.70433837500000000E+06      0.93234980000000000E+07     _
                0.70434237500000000E+06      0.93235000000000000E+07     _
                0.70434637500000000E+06      0.93235030000000000E+07     _
                0.70435043750000000E+06      0.93235050000000000E+07     _
                0.70435450000000000E+06      0.93235070000000000E+07     _
                0.70435868750000000E+06      0.93235090000000000E+07     _
                0.70436281250000000E+06      0.93235110000000000E+07     _
                0.70436700000000000E+06      0.93235130000000000E+07     _
                0.70437125000000000E+06      0.93235150000000000E+07     _
                0.70437550000000000E+06      0.93235160000000000E+07     _
                0.70437981250000000E+06      0.93235180000000000E+07     _
                0.70438412500000000E+06      0.93235200000000000E+07     _
                0.70438843750000000E+06      0.93235210000000000E+07     _
                0.70439281250000000E+06      0.93235230000000000E+07     _
                0.70439725000000000E+06      0.93235240000000000E+07     _
                0.70440162500000000E+06      0.93235250000000000E+07     _
                0.70440606250000000E+06      0.93235270000000000E+07     _
                0.70441056250000000E+06      0.93235280000000000E+07     _
                0.70441506250000000E+06      0.93235290000000000E+07     _
                0.70441956250000000E+06      0.93235300000000000E+07     _
                0.70442406250000000E+06      0.93235310000000000E+07     _
                0.70442862500000000E+06      0.93235320000000000E+07     _
                0.70443312500000000E+06      0.93235320000000000E+07     _
                0.70443768750000000E+06      0.93235330000000000E+07     _
                0.70444225000000000E+06      0.93235340000000000E+07     _
                0.70444687500000000E+06      0.93235340000000000E+07     _
                0.70445143750000000E+06      0.93235350000000000E+07     _
                0.70445600000000000E+06      0.93235350000000000E+07     _
                0.70446062500000000E+06      0.93235350000000000E+07     _
                0.70446525000000000E+06      0.93235350000000000E+07     _
                0.70446981250000000E+06      0.93235350000000000E+07     _
                0.70447443750000000E+06      0.93235350000000000E+07     _
                0.70447906250000000E+06      0.93235350000000000E+07     _
                0.70448368750000000E+06      0.93235350000000000E+07     _
                0.70448825000000000E+06      0.93235350000000000E+07     _
                0.70449287500000000E+06      0.93235350000000000E+07     _
                0.70449743750000000E+06      0.93235340000000000E+07     _
                0.70450206250000000E+06      0.93235340000000000E+07     _
                0.70450662500000000E+06      0.93235330000000000E+07     _
                0.70451118750000000E+06      0.93235330000000000E+07     _
                0.70451575000000000E+06      0.93235320000000000E+07     _
                0.70452025000000000E+06      0.93235310000000000E+07     _
                0.70452481250000000E+06      0.93235310000000000E+07     _
                0.70452931250000000E+06      0.93235300000000000E+07     _
                0.70453381250000000E+06      0.93235290000000000E+07     _
                0.70453831250000000E+06      0.93235280000000000E+07     _
                0.70454275000000000E+06      0.93235260000000000E+07     _
                0.70454718750000000E+06      0.93235250000000000E+07     _
                0.70455162500000000E+06      0.93235240000000000E+07     _
                0.70455600000000000E+06      0.93235220000000000E+07     _
                0.70456037500000000E+06      0.93235210000000000E+07     _
                0.70456468750000000E+06      0.93235190000000000E+07     _
                0.70456900000000000E+06      0.93235180000000000E+07     _
                0.70457331250000000E+06      0.93235160000000000E+07     _
                0.70457756250000000E+06      0.93235140000000000E+07     _
                0.70458181250000000E+06      0.93235120000000000E+07     _
                0.70458600000000000E+06      0.93235110000000000E+07     _
                0.70459012500000000E+06      0.93235090000000000E+07     _
                0.70459425000000000E+06      0.93235070000000000E+07     _
                0.70459831250000000E+06      0.93235040000000000E+07     _
                0.70460237500000000E+06      0.93235020000000000E+07     _
                0.70460637500000000E+06      0.93235000000000000E+07     _
                0.70460950000000000E+06      0.93234980000000000E+07     _
                0.70461631250000000E+06      0.93234930000000000E+07     _
                0.70462318750000000E+06      0.93234900000000000E+07     _
                0.70462968750000000E+06      0.93234910000000000E+07     _
                0.70463793750000000E+06      0.93234930000000000E+07     _
                0.70465543750000000E+06      0.93234960000000000E+07     _
                0.70466306250000000E+06      0.93234980000000000E+07     _
                0.70467500000000000E+06      0.93235010000000000E+07     _
                0.70468693750000000E+06      0.93235040000000000E+07     _
                0.70469706250000000E+06      0.93235050000000000E+07     _
                0.70470768750000000E+06      0.93235090000000000E+07     _
                0.70471825000000000E+06      0.93235120000000000E+07     _
                0.70472806250000000E+06      0.93235140000000000E+07     _
                0.70473825000000000E+06      0.93235160000000000E+07     _
                0.70474887500000000E+06      0.93235190000000000E+07     _
                0.70476118750000000E+06      0.93235210000000000E+07     _
                0.70477143750000000E+06      0.93235240000000000E+07     _
                0.70478062500000000E+06      0.93235260000000000E+07     _
                0.70479056250000000E+06      0.93235280000000000E+07     _
                0.70480175000000000E+06      0.93235310000000000E+07     _
                0.70481143750000000E+06      0.93235330000000000E+07     _
                0.70482162500000000E+06      0.93235360000000000E+07     _
                0.70483093750000000E+06      0.93235390000000000E+07     _
                0.70484237500000000E+06      0.93235420000000000E+07     _
                0.70485243750000000E+06      0.93235450000000000E+07     _
                0.70486256250000000E+06      0.93235480000000000E+07     _
                0.70487243750000000E+06      0.93235500000000000E+07     _
                0.70488243750000000E+06      0.93235530000000000E+07     _
                0.70489268750000000E+06      0.93235560000000000E+07     _
                0.70490275000000000E+06      0.93235590000000000E+07     _
                0.70491281250000000E+06      0.93235610000000000E+07     _
                0.70492393750000000E+06      0.93235640000000000E+07     _
                0.70493406250000000E+06      0.93235670000000000E+07     _
                0.70494556250000000E+06      0.93235710000000000E+07     _
                0.70495600000000000E+06      0.93235750000000000E+07     _
                0.70496300000000000E+06      0.93235770000000000E+07     _
                0.70496981250000000E+06      0.93235790000000000E+07     _
                0.70497825000000000E+06      0.93235820000000000E+07     _
                0.70498918750000000E+06      0.93235850000000000E+07     _
                0.70499900000000000E+06      0.93235890000000000E+07     _
                0.70501100000000000E+06      0.93235910000000000E+07     _
                0.70502325000000000E+06      0.93235960000000000E+07     _
                0.70503268750000000E+06      0.93236000000000000E+07     _
                0.70504487500000000E+06      0.93236030000000000E+07     _
                0.70505387500000000E+06      0.93236080000000000E+07     _
                0.70506481250000000E+06      0.93236130000000000E+07     _
                0.70507275000000000E+06      0.93236170000000000E+07     _
                0.70508006250000000E+06      0.93236250000000000E+07     _
                0.70509018750000000E+06      0.93236300000000000E+07     _
                0.70509787500000000E+06      0.93236340000000000E+07     _
                0.70510712500000000E+06      0.93236390000000000E+07     _
                0.70511650000000000E+06      0.93236430000000000E+07     _
                0.70512525000000000E+06      0.93236480000000000E+07     _
                0.70513325000000000E+06      0.93236530000000000E+07     _
                0.70514268750000000E+06      0.93236590000000000E+07     _
                0.70515150000000000E+06      0.93236640000000000E+07     _
                0.70515962500000000E+06      0.93236700000000000E+07     _
                0.70516650000000000E+06      0.93236760000000000E+07     _
                0.70517675000000000E+06      0.93236850000000000E+07     _
                0.70518531250000000E+06      0.93236920000000000E+07     _
                0.70519493750000000E+06      0.93236990000000000E+07     _
                0.70520312500000000E+06      0.93237050000000000E+07     _
                0.70521106250000000E+06      0.93237110000000000E+07     _
                0.70522256250000000E+06      0.93237170000000000E+07     _
                0.70523287500000000E+06      0.93237230000000000E+07     _
                0.70524512500000000E+06      0.93237280000000000E+07     _
                0.70525587500000000E+06      0.93237350000000000E+07     _
                0.70526293750000000E+06      0.93237430000000000E+07     _
                0.70527037500000000E+06      0.93237510000000000E+07     _
                0.70527868750000000E+06      0.93237620000000000E+07     _
                0.70528243750000000E+06      0.93237620000000000E+07     _
                0.70529012500000000E+06      0.93237790000000000E+07     _
                0.70529343750000000E+06      0.93237860000000000E+07     _
                0.70529587500000000E+06      0.93237930000000000E+07     _
                0.70529743750000000E+06      0.93238030000000000E+07     _
                0.70529756250000000E+06      0.93238150000000000E+07     _
                0.70529668750000000E+06      0.93238250000000000E+07     _
                0.70529900000000000E+06      0.93238340000000000E+07     _
                0.70529887500000000E+06      0.93238430000000000E+07     _
                0.70529531250000000E+06      0.93238510000000000E+07     _
                0.70529287500000000E+06      0.93238560000000000E+07     _
                0.70528750000000000E+06      0.93238610000000000E+07     _
                0.70528062500000000E+06      0.93238630000000000E+07     _
                0.70527206250000000E+06      0.93238750000000000E+07     _
                0.70526737500000000E+06      0.93238850000000000E+07     _
                0.70525812500000000E+06      0.93238890000000000E+07     _
                0.70524825000000000E+06      0.93238930000000000E+07     _
                0.70524300000000000E+06      0.93238950000000000E+07     _
                0.70523275000000000E+06      0.93238990000000000E+07     _
                0.70522637500000000E+06      0.93239060000000000E+07     _
                0.70521881250000000E+06      0.93239150000000000E+07     _
                0.70521118750000000E+06      0.93239270000000000E+07     _
                0.70520756250000000E+06      0.93239370000000000E+07     _
                0.70520768750000000E+06      0.93239370000000000E+07     _
                0.70521081250000000E+06      0.93239500000000000E+07     _
                0.70521312500000000E+06      0.93239610000000000E+07     _
                0.70521006250000000E+06      0.93239720000000000E+07     _
                0.70520850000000000E+06      0.93239840000000000E+07     _
                0.70520237500000000E+06      0.93239920000000000E+07     _
                0.70519506250000000E+06      0.93240000000000000E+07     _
                0.70520356250000000E+06      0.93240160000000000E+07     _
                0.70520893750000000E+06      0.93240260000000000E+07     _
                0.70521237500000000E+06      0.93240370000000000E+07     _
                0.70521468750000000E+06      0.93240410000000000E+07     _
                0.70522168750000000E+06      0.93240500000000000E+07     _
                0.70522668750000000E+06      0.93240580000000000E+07     _
                0.70523343750000000E+06      0.93240690000000000E+07     _
                0.70524100000000000E+06      0.93240760000000000E+07     _
                0.70525043750000000E+06      0.93240840000000000E+07     _
                0.70526056250000000E+06      0.93240900000000000E+07     _
                0.70527118750000000E+06      0.93240960000000000E+07     _
                0.70528268750000000E+06      0.93241010000000000E+07     _
                0.70529493750000000E+06      0.93241060000000000E+07     _
                0.70530556250000000E+06      0.93241120000000000E+07     _
                0.70531593750000000E+06      0.93241180000000000E+07     _
                0.70532456250000000E+06      0.93241280000000000E+07     _
                0.70533100000000000E+06      0.93241350000000000E+07     _
                0.70533506250000000E+06      0.93241420000000000E+07     _
                0.70533812500000000E+06      0.93241510000000000E+07     _
                0.70534437500000000E+06      0.93241580000000000E+07     _
                0.70534950000000000E+06      0.93241660000000000E+07     _
                0.70535456250000000E+06      0.93241760000000000E+07     _
                0.70535781250000000E+06      0.93241880000000000E+07     _
                0.70536025000000000E+06      0.93241980000000000E+07     _
                0.70536762500000000E+06      0.93242060000000000E+07     _
                0.70537618750000000E+06      0.93242150000000000E+07     _
                0.70538543750000000E+06      0.93242210000000000E+07     _
                0.70539268750000000E+06      0.93242260000000000E+07     _
                0.70540437500000000E+06      0.93242330000000000E+07     _
                0.70541281250000000E+06      0.93242360000000000E+07     _
                0.70542187500000000E+06      0.93242380000000000E+07     _
                0.70542318750000000E+06      0.93242390000000000E+07     _
                0.70543112500000000E+06      0.93242390000000000E+07     _
                0.70543243750000000E+06      0.93242410000000000E+07     _
                0.70544343750000000E+06      0.93242420000000000E+07     _
                0.70544618750000000E+06      0.93242440000000000E+07     _
                0.70545562500000000E+06      0.93242450000000000E+07     _
                0.70546668750000000E+06      0.93242480000000000E+07     _
                0.70547312500000000E+06      0.93242490000000000E+07     _
                0.70547956250000000E+06      0.93242510000000000E+07     _
                0.70548568750000000E+06      0.93242510000000000E+07     _
                0.70549725000000000E+06      0.93242540000000000E+07     _
                0.70550812500000000E+06      0.93242560000000000E+07     _
                0.70551731250000000E+06      0.93242590000000000E+07     _
                0.70552756250000000E+06      0.93242600000000000E+07     _
                0.70553656250000000E+06      0.93242620000000000E+07     _
                0.70554531250000000E+06      0.93242610000000000E+07     _
                0.70555268750000000E+06      0.93242590000000000E+07     _
                0.70556643750000000E+06      0.93242570000000000E+07     _
                0.70557612500000000E+06      0.93242540000000000E+07     _
                0.70558668750000000E+06      0.93242500000000000E+07     _
                0.70559318750000000E+06      0.93242410000000000E+07     _
                0.70559750000000000E+06      0.93242310000000000E+07     _
                0.70560262500000000E+06      0.93242220000000000E+07     _
                0.70560787500000000E+06      0.93242130000000000E+07     _
                0.70561387500000000E+06      0.93242060000000000E+07     _
                0.70567856250000000E+06      0.93241890000000000E+07     _
                0.70577218750000000E+06      0.93242060000000000E+07     _
                0.70583675000000000E+06      0.93242200000000000E+07     _
                0.70588343750000000E+06      0.93242390000000000E+07     _
                0.70592931250000000E+06      0.93242640000000000E+07     _
                0.70590256250000000E+06      0.93244620000000000E+07     _
                0.70596343750000000E+06      0.93245510000000000E+07     _
                0.70610225000000000E+06      0.93247260000000000E+07     _
                0.70610793750000000E+06      0.93247230000000000E+07     _
                0.70590881250000000E+06      0.93244620000000000E+07     _
                0.70593825000000000E+06      0.93242120000000000E+07     _
                0.70598112500000000E+06      0.93239010000000000E+07     _
                0.70565118750000000E+06      0.93238350000000000E+07     _
                0.99999902343750000E+03      0.99999902343750000E+03     _
                0.70330043750000000E+06      0.93232830000000000E+07     _
                0.70320987500000000E+06      0.93232010000000000E+07     _
                0.70309843750000000E+06      0.93230900000000000E+07     _
                0.70310487500000000E+06      0.93230170000000000E+07     _
                0.70297106250000000E+06      0.93230160000000000E+07     _
                0.70296706250000000E+06      0.93230990000000000E+07     _
                0.70283206250000000E+06      0.93231030000000000E+07     _
                0.70258131250000000E+06      0.93230670000000000E+07     _
                0.70256825000000000E+06      0.93230790000000000E+07     _
                0.70254056250000000E+06      0.93230770000000000E+07     _
                0.70252712500000000E+06      0.93230900000000000E+07     _
                0.70250725000000000E+06      0.93231670000000000E+07     _
                0.70243731250000000E+06      0.93231690000000000E+07     _
                0.70240518750000000E+06      0.93234270000000000E+07     _
                0.70242268750000000E+06      0.93234610000000000E+07     _
                0.70240475000000000E+06      0.93235680000000000E+07     _
                0.70275018750000000E+06      0.93235220000000000E+07     _
                0.70324150000000000E+06      0.93234570000000000E+07     _
                0.70326487500000000E+06      0.93234410000000000E+07     _
                0.70327787500000000E+06      0.93234270000000000E+07     _
                0.70328687500000000E+06      0.93234150000000000E+07     _
                0.70329900000000000E+06      0.93233810000000000E+07     _
                0.70330825000000000E+06      0.93233490000000000E+07     _
                0.70331087500000000E+06      0.93233300000000000E+07     _
                0.70331306250000000E+06      0.93233130000000000E+07     _
                0.70330043750000000E+06      0.93232830000000000E+07  
                                                                      
  $                                                                   
                                                                      
  $***************************** OUTPUT REQUEST **************************
                                                                      
  $                                                                   
                                                                      
  QUANTITY HSIGN   excv=-999.0                                        
                                                                      
  QUANTITY DIR     excv=-999.0                                        
                                                                      
  QUANTITY TM01    excv=-999.0                                        
                                                                      
  QUANTITY DEPTH   excv=-999.0                                        
                                                                      
  QUANTITY VELOC   excv=-999.0                                        
                                                                      
  QUANTITY TRANSP  excv=-999.0                                        
                                                                      
  QUANTITY DSPR    excv=-999.0                                        
                                                                      
  QUANTITY DISSIP  excv=-999.0                                        
                                                                      
  QUANTITY LEAK    excv=-999.0                                        
                                                                      
  QUANTITY QB      excv=-999.0                                        
                                                                      
  QUANTITY XP      excv=-999.0                                        
                                                                      
  QUANTITY YP      excv=-999.0                                        
                                                                      
  QUANTITY DIST    excv=-999.0                                        
                                                                      
  QUANTITY UBOT    excv=-999.0                                        
                                                                      
  QUANTITY STEEPW  excv=-999.0                                        
                                                                      
  QUANTITY WLENGTH excv=-999.0                                        
                                                                      
  QUANTITY FORCES  excv=-999.0                                        
                                                                      
  QUANTITY RTP     excv=-999.0                                        
                                                                      
  QUANTITY PDIR    excv=-999.0                                        
                                                                      
  QUANTITY WIND    excv=-999.0                                        
                                                                      
  QUANTITY TPS     excv=-999.0                                        
                                                                      
  QUANTITY TM02    excv=-999.0                                        
                                                                      
  QUANTITY TMM10   excv=-999.0                                        
                                                                      
  QUANTITY DHSIGN  excv=-999.0                                        
                                                                      
  QUANTITY DRTM01  excv=-999.0                                        
                                                                      
  QUANTITY SETUP   excv=-999.0                                        
                                                                      
  $                                                                   
                                                                      
  POINTS 'NGRID002' FILE 'SWANIN_NGRID002'                            
                                                                      
  SPEC _                                                              
  'NGRID002' SPEC2D  ABS 'NEST002'                                    
                                                                      
  TABLE 'COMPGRID' NOHEAD 'SWANOUT1'  _                               
   HSIGN    DIR      TM01     DEPTH    VELOC    TRANSP _              
   DSPR     DISSIP   LEAK     QB       XP       YP     _              
   DIST     UBOT     STEEPW   WLENGTH  FORCES   RTP    _              
   PDIR     WIND                                                      
                                                                      
  $                                                                   
                                                                      
  TABLE 'COMPGRID' NOHEAD 'SWANOUT2'  _                               
   TPS      TM02     TMM10    DHSIGN   DRTM01   SETUP  _              
  $                                                                   
                                                                      
  $                                                                   
                                                                      
  POINTS 'skenario' _                                                 
  FILE 'skenario-1.loc'                                               
                                                                      
  $                                                                   
                                                                      
  TABLE 'skenario' HEAD 'skenario-1.locn1.tab' XP YP DEP HS DIR RTP TM01 _
                                      DSPR UBOT WIND VEL              
                                                                      
  SPEC  'skenario' SPEC1D 'skenario-1.locn1.sp1'                      
                                                                      
  SPEC  'skenario' SPEC2D 'skenarion1.sp2'                            
                                                                      
  $                                                                   
                                                                      
  $                                                                   
                                                                      
  TEST  ITEST=   0  ITRACE=   0                                       
                                                                      
  COMPUTE STAT   20260213.000000                                      
 ** Warning          : (corner)point outside comp. grid               
       Set of output locations: skenario  coordinates: 703173.009323094.00
 ** Warning          : (corner)point outside comp. grid               
       Set of output locations: skenario  coordinates: 703151.889323053.00
 ** Warning          : relative frequency resolution (df/f) deviates more
 ** Warning          : than 5% from 10%-resolution. This may be problematic
 ** Warning          : when quadruplets are approximated by means of DIA.
  ---------------------------------------------------------------     
  First guess by 2nd generation model flags for first iteration:      
  ITER       1 GRWMX      0.1000E+23 ALFA       0.0000E+00            
  IWIND      2 IWCAP      0 IQUAD      0                              
  ITRIAD     0 IBOT       1 ISURF      1                              
  ---------------------------------------------------------------     
 iteration    1; sweep 1                                              
 iteration    1; sweep 2                                              
 iteration    1; sweep 3                                              
 iteration    1; sweep 4                                              
 accuracy OK in   1.21 % of wet grid points ( 98.00 % required)       
                                                                      
  ---------------------------------------------------------------     
  Options given by user are activated for proceeding calculation:     
  ITER       2 GRWMX      0.1000E+00 ALFA       0.0000E+00            
  IWIND      3 IWCAP      1 IQUAD      2                              
  ITRIAD     0 IBOT       1 ISURF      1                              
  ---------------------------------------------------------------     
 iteration    2; sweep 1                                              
 iteration    2; sweep 2                                              
 iteration    2; sweep 3                                              
 iteration    2; sweep 4                                              
 accuracy OK in  35.83 % of wet grid points ( 98.00 % required)       
                                                                      
 iteration    3; sweep 1                                              
 iteration    3; sweep 2                                              
 iteration    3; sweep 3                                              
 iteration    3; sweep 4                                              
 accuracy OK in  72.63 % of wet grid points ( 98.00 % required)       
                                                                      
 iteration    4; sweep 1                                              
 iteration    4; sweep 2                                              
 iteration    4; sweep 3                                              
 iteration    4; sweep 4                                              
 accuracy OK in  83.24 % of wet grid points ( 98.00 % required)       
                                                                      
 iteration    5; sweep 1                                              
 iteration    5; sweep 2                                              
 iteration    5; sweep 3                                              
 iteration    5; sweep 4                                              
 accuracy OK in  72.34 % of wet grid points ( 98.00 % required)       
                                                                      
 iteration    6; sweep 1                                              
 iteration    6; sweep 2                                              
 iteration    6; sweep 3                                              
 iteration    6; sweep 4                                              
 accuracy OK in  75.71 % of wet grid points ( 98.00 % required)       
                                                                      
 iteration    7; sweep 1                                              
 iteration    7; sweep 2                                              
 iteration    7; sweep 3                                              
 iteration    7; sweep 4                                              
 accuracy OK in  99.50 % of wet grid points ( 98.00 % required)       
                                                                      
                                                                      
                                                                      
  STOP                                                                
1                                                                     
                                                                      
                    Execution started at 20260225.174429              
                                                                      
                                                                      
                                                                      
                    ---------------------------------------           
                                     SWAN                             
                    SIMULATION OF WAVES IN NEAR SHORE AREAS           
                    DELTARES VERSION NUMBER 40.72ABCDE                
                    ---------------------------------------           
                                                                      
                                                                      
                                                                      
  $***************************** HEADING *********************************
                                                                      
  $                                                                   
                                                                      
  PROJECT  '                '  '    '                                 
                                                                      
      '                                                                        '
                                                                      
      '                                                                        '
                                                                      
      '                                                                        '
                                                                      
  $                                                                   
                                                                      
  $***************************** MODEL INPUT *****************************
                                                                      
  $                                                                   
                                                                      
  SET   LEVEL =   0.00  NOR =  90.00    DEPMIN =   0.01 _             
         MAXMES = 1000   MAXERR = 2 _                                 
        GRAV =    9.81  RHO =  1025.00  INRHOG =      1 _             
        NAUT                                                          
                                                                      
  $                                                                   
                                                                      
  MODE NONST                                                          
                                                                      
  CGRID CURV   74   67          EXCEPT  0.0    0.0         _          
        CIR                         36       0.03       1.00  180     
 Resolution in sigma-space: df/f =  0.0197                            
                                                                      
  $                                                                   
                                                                      
  READ COOR 1. 'TMP_grid2swan02' _                                    
   4   0   1 FREE                                                     
 **  Heading lines  **                                                
 -> x-coordinates                                                     
 **  Heading lines  **                                                
 -> y-coordinates                                                     
                                                                      
  $                                                                   
                                                                      
  INPGRID _                                                           
  BOTTOM CURV 0. 0.   74   67                                         
                                                                      
  READINP BOTTOM 1.0   'BOTNOW' 4 0 FREE                              
                                                                      
  $                                                                   
                                                                      
  $                                                                   
                                                                      
  $                                                                   
                                                                      
  $                                                                   
                                                                      
  WIND  VEL=     13.23 DIR=    337.50                                 
                                                                      
  $                                                                   
                                                                      
  $                                                                   
                                                                      
  BOUN NEST 'NEST002' CLOSED                                          
                                                                      
  $                                                                   
                                                                      
  GEN3                                                                
                                                                      
  BREAK CON       1.00    0.73                                        
                                                                      
  FRIC JON      0.0380                                                
                                                                      
  LIM  10 1                                                           
                                                                      
  NUM DIR cdd=   0.50 SIGIM css=   0.50                               
                                                                      
  $                                                                   
                                                                      
  NUM ACCUR        0.020    0.020    0.020   98.000   15              
                                                                      
  OBST TRANS  0.000                                        LIN _      
                0.70565118750000000E+06      0.93238350000000000E+07     _
                0.70559993750000000E+06      0.93238560000000000E+07     _
                0.70553375000000000E+06      0.93238550000000000E+07     _
                0.70546831250000000E+06      0.93238160000000000E+07     _
                0.70542112500000000E+06      0.93237820000000000E+07     _
                0.70538531250000000E+06      0.93237470000000000E+07     _
                0.70525731250000000E+06      0.93236910000000000E+07     _
                0.70518012500000000E+06      0.93236330000000000E+07     _
                0.70513931250000000E+06      0.93235750000000000E+07     _
                0.70513568750000000E+06      0.93235710000000000E+07     _
                0.70511831250000000E+06      0.93235620000000000E+07     _
                0.70510793750000000E+06      0.93235580000000000E+07     _
                0.70510106250000000E+06      0.93235590000000000E+07     _
                0.70509087500000000E+06      0.93235530000000000E+07     _
                0.70508006250000000E+06      0.93235510000000000E+07     _
                0.70506787500000000E+06      0.93235490000000000E+07     _
                0.70505712500000000E+06      0.93235520000000000E+07     _
                0.70504837500000000E+06      0.93235530000000000E+07     _
                0.70504150000000000E+06      0.93235520000000000E+07     _
                0.70503100000000000E+06      0.93235520000000000E+07     _
                0.70501881250000000E+06      0.93235540000000000E+07     _
                0.70500793750000000E+06      0.93235530000000000E+07     _
                0.70499550000000000E+06      0.93235500000000000E+07     _
                0.70498525000000000E+06      0.93235500000000000E+07     _
                0.70497325000000000E+06      0.93235480000000000E+07     _
                0.70496343750000000E+06      0.93235480000000000E+07     _
                0.70495368750000000E+06      0.93235460000000000E+07     _
                0.70494300000000000E+06      0.93235440000000000E+07     _
                0.70493293750000000E+06      0.93235400000000000E+07     _
                0.70492275000000000E+06      0.93235370000000000E+07     _
                0.70491343750000000E+06      0.93235320000000000E+07     _
                0.70490212500000000E+06      0.93235270000000000E+07     _
                0.70489212500000000E+06      0.93235220000000000E+07     _
                0.70488212500000000E+06      0.93235180000000000E+07     _
                0.70487025000000000E+06      0.93235140000000000E+07     _
                0.70485918750000000E+06      0.93235120000000000E+07     _
                0.70484862500000000E+06      0.93235090000000000E+07     _
                0.70483568750000000E+06      0.93235030000000000E+07     _
                0.70482418750000000E+06      0.93234980000000000E+07     _
                0.70481006250000000E+06      0.93234960000000000E+07     _
                0.70479818750000000E+06      0.93234940000000000E+07     _
                0.70478600000000000E+06      0.93234940000000000E+07     _
                0.70477437500000000E+06      0.93234930000000000E+07     _
                0.70476025000000000E+06      0.93234890000000000E+07     _
                0.70474762500000000E+06      0.93234840000000000E+07     _
                0.70473550000000000E+06      0.93234810000000000E+07     _
                0.70472256250000000E+06      0.93234750000000000E+07     _
                0.70471025000000000E+06      0.93234680000000000E+07     _
                0.70469806250000000E+06      0.93234620000000000E+07     _
                0.70468600000000000E+06      0.93234610000000000E+07     _
                0.70467300000000000E+06      0.93234580000000000E+07     _
                0.70466193750000000E+06      0.93234580000000000E+07     _
                0.70464706250000000E+06      0.93234620000000000E+07     _
                0.70463506250000000E+06      0.93234680000000000E+07     _
                0.70462118750000000E+06      0.93234730000000000E+07     _
                0.70461025000000000E+06      0.93234850000000000E+07     _
                0.70460387500000000E+06      0.93234910000000000E+07     _
                0.70460187500000000E+06      0.93234920000000000E+07     _
                0.70459800000000000E+06      0.93234940000000000E+07     _
                0.70459406250000000E+06      0.93234960000000000E+07     _
                0.70459012500000000E+06      0.93234980000000000E+07     _
                0.70458612500000000E+06      0.93235000000000000E+07     _
                0.70458212500000000E+06      0.93235020000000000E+07     _
                0.70457806250000000E+06      0.93235040000000000E+07     _
                0.70457400000000000E+06      0.93235060000000000E+07     _
                0.70456993750000000E+06      0.93235080000000000E+07     _
                0.70456575000000000E+06      0.93235090000000000E+07     _
                0.70456162500000000E+06      0.93235110000000000E+07     _
                0.70455743750000000E+06      0.93235120000000000E+07     _
                0.70455318750000000E+06      0.93235140000000000E+07     _
                0.70454893750000000E+06      0.93235150000000000E+07     _
                0.70454468750000000E+06      0.93235160000000000E+07     _
                0.70454037500000000E+06      0.93235180000000000E+07     _
                0.70453612500000000E+06      0.93235190000000000E+07     _
                0.70453175000000000E+06      0.93235200000000000E+07     _
                0.70452743750000000E+06      0.93235210000000000E+07     _
                0.70452306250000000E+06      0.93235220000000000E+07     _
                0.70451868750000000E+06      0.93235220000000000E+07     _
                0.70451431250000000E+06      0.93235230000000000E+07     _
                0.70450987500000000E+06      0.93235240000000000E+07     _
                0.70450550000000000E+06      0.93235240000000000E+07     _
                0.70450106250000000E+06      0.93235250000000000E+07     _
                0.70449662500000000E+06      0.93235250000000000E+07     _
                0.70449218750000000E+06      0.93235260000000000E+07     _
                0.70448775000000000E+06      0.93235260000000000E+07     _
                0.70448331250000000E+06      0.93235260000000000E+07     _
                0.70447887500000000E+06      0.93235260000000000E+07     _
                0.70447443750000000E+06      0.93235260000000000E+07     _
                0.70447000000000000E+06      0.93235260000000000E+07     _
                0.70446550000000000E+06      0.93235260000000000E+07     _
                0.70446106250000000E+06      0.93235260000000000E+07     _
                0.70445662500000000E+06      0.93235260000000000E+07     _
                0.70445218750000000E+06      0.93235260000000000E+07     _
                0.70444775000000000E+06      0.93235250000000000E+07     _
                0.70444337500000000E+06      0.93235250000000000E+07     _
                0.70443893750000000E+06      0.93235240000000000E+07     _
                0.70443456250000000E+06      0.93235230000000000E+07     _
                0.70443012500000000E+06      0.93235230000000000E+07     _
                0.70442575000000000E+06      0.93235220000000000E+07     _
                0.70442143750000000E+06      0.93235210000000000E+07     _
                0.70441706250000000E+06      0.93235200000000000E+07     _
                0.70441275000000000E+06      0.93235190000000000E+07     _
                0.70440843750000000E+06      0.93235180000000000E+07     _
                0.70440412500000000E+06      0.93235170000000000E+07     _
                0.70439987500000000E+06      0.93235150000000000E+07     _
                0.70439562500000000E+06      0.93235140000000000E+07     _
                0.70439137500000000E+06      0.93235130000000000E+07     _
                0.70438718750000000E+06      0.93235110000000000E+07     _
                0.70438300000000000E+06      0.93235100000000000E+07     _
                0.70437887500000000E+06      0.93235080000000000E+07     _
                0.70437475000000000E+06      0.93235060000000000E+07     _
                0.70437068750000000E+06      0.93235050000000000E+07     _
                0.70436662500000000E+06      0.93235030000000000E+07     _
                0.70436262500000000E+06      0.93235010000000000E+07     _
                0.70435862500000000E+06      0.93234990000000000E+07     _
                0.70435468750000000E+06      0.93234970000000000E+07     _
                0.70435075000000000E+06      0.93234950000000000E+07     _
                0.70434687500000000E+06      0.93234930000000000E+07     _
                0.70434306250000000E+06      0.93234900000000000E+07     _
                0.70433925000000000E+06      0.93234880000000000E+07     _
                0.70433550000000000E+06      0.93234860000000000E+07     _
                0.70433175000000000E+06      0.93234830000000000E+07     _
                0.70432812500000000E+06      0.93234810000000000E+07     _
                0.70432450000000000E+06      0.93234780000000000E+07     _
                0.70432087500000000E+06      0.93234750000000000E+07     _
                0.70431737500000000E+06      0.93234730000000000E+07     _
                0.70431387500000000E+06      0.93234700000000000E+07     _
                0.70431043750000000E+06      0.93234670000000000E+07     _
                0.70430706250000000E+06      0.93234640000000000E+07     _
                0.70430368750000000E+06      0.93234610000000000E+07     _
                0.70430043750000000E+06      0.93234580000000000E+07     _
                0.70429718750000000E+06      0.93234550000000000E+07     _
                0.70429400000000000E+06      0.93234520000000000E+07     _
                0.70429087500000000E+06      0.93234490000000000E+07     _
                0.70428462500000000E+06      0.93234420000000000E+07     _
                0.70428518750000000E+06      0.93234340000000000E+07     _
                0.70392350000000000E+06      0.93233140000000000E+07     _
                0.70382837500000000E+06      0.93233600000000000E+07     _
                0.70378500000000000E+06      0.93235900000000000E+07     _
                0.70376893750000000E+06      0.93236760000000000E+07     _
                0.70375287500000000E+06      0.93237620000000000E+07     _
                0.70372037500000000E+06      0.93239450000000000E+07     _
                0.70367893750000000E+06      0.93241690000000000E+07     _
                0.70367887500000000E+06      0.93241690000000000E+07     _
                0.70367875000000000E+06      0.93241690000000000E+07     _
                0.70367862500000000E+06      0.93241700000000000E+07     _
                0.70367850000000000E+06      0.93241710000000000E+07     _
                0.70367843750000000E+06      0.93241710000000000E+07     _
                0.70367837500000000E+06      0.93241720000000000E+07     _
                0.70367831250000000E+06      0.93241730000000000E+07     _
                0.70367831250000000E+06      0.93241730000000000E+07     _
                0.70367831250000000E+06      0.93241740000000000E+07     _
                0.70367837500000000E+06      0.93241740000000000E+07     _
                0.70367843750000000E+06      0.93241750000000000E+07     _
                0.70367850000000000E+06      0.93241760000000000E+07     _
                0.70367856250000000E+06      0.93241760000000000E+07     _
                0.70367868750000000E+06      0.93241770000000000E+07     _
                0.70367881250000000E+06      0.93241780000000000E+07     _
                0.70367900000000000E+06      0.93241780000000000E+07     _
                0.70367918750000000E+06      0.93241790000000000E+07     _
                0.70367937500000000E+06      0.93241790000000000E+07     _
                0.70367956250000000E+06      0.93241800000000000E+07     _
                0.70367981250000000E+06      0.93241800000000000E+07     _
                0.70368006250000000E+06      0.93241810000000000E+07     _
                0.70368037500000000E+06      0.93241820000000000E+07     _
                0.70368068750000000E+06      0.93241820000000000E+07     _
                0.70368100000000000E+06      0.93241830000000000E+07     _
                0.70368131250000000E+06      0.93241830000000000E+07     _
                0.70368168750000000E+06      0.93241840000000000E+07     _
                0.70368206250000000E+06      0.93241840000000000E+07     _
                0.70368243750000000E+06      0.93241850000000000E+07     _
                0.70368287500000000E+06      0.93241850000000000E+07     _
                0.70368331250000000E+06      0.93241860000000000E+07     _
                0.70368375000000000E+06      0.93241860000000000E+07     _
                0.70368418750000000E+06      0.93241870000000000E+07     _
                0.70368462500000000E+06      0.93241870000000000E+07     _
                0.70368512500000000E+06      0.93241870000000000E+07     _
                0.70368562500000000E+06      0.93241880000000000E+07     _
                0.70368612500000000E+06      0.93241880000000000E+07     _
                0.70368668750000000E+06      0.93241890000000000E+07     _
                0.70368718750000000E+06      0.93241890000000000E+07     _
                0.70368775000000000E+06      0.93241890000000000E+07     _
                0.70368831250000000E+06      0.93241890000000000E+07     _
                0.70368887500000000E+06      0.93241900000000000E+07     _
                0.70368950000000000E+06      0.93241900000000000E+07     _
                0.70369006250000000E+06      0.93241900000000000E+07     _
                0.70369062500000000E+06      0.93241900000000000E+07     _
                0.70369125000000000E+06      0.93241910000000000E+07     _
                0.70369187500000000E+06      0.93241910000000000E+07     _
                0.70369243750000000E+06      0.93241910000000000E+07     _
[...]
                0.70537618750000000E+06      0.93242150000000000E+07     _
                0.70538543750000000E+06      0.93242210000000000E+07     _
                0.70539268750000000E+06      0.93242260000000000E+07     _
                0.70540437500000000E+06      0.93242330000000000E+07     _
                0.70541281250000000E+06      0.93242360000000000E+07     _
                0.70542187500000000E+06      0.93242380000000000E+07     _
                0.70542318750000000E+06      0.93242390000000000E+07     _
                0.70543112500000000E+06      0.93242390000000000E+07     _
                0.70543243750000000E+06      0.93242410000000000E+07     _
                0.70544343750000000E+06      0.93242420000000000E+07     _
                0.70544618750000000E+06      0.93242440000000000E+07     _
                0.70545562500000000E+06      0.93242450000000000E+07     _
                0.70546668750000000E+06      0.93242480000000000E+07     _
                0.70547312500000000E+06      0.93242490000000000E+07     _
                0.70547956250000000E+06      0.93242510000000000E+07     _
                0.70548568750000000E+06      0.93242510000000000E+07     _
                0.70549725000000000E+06      0.93242540000000000E+07     _
                0.70550812500000000E+06      0.93242560000000000E+07     _
                0.70551731250000000E+06      0.93242590000000000E+07     _
                0.70552756250000000E+06      0.93242600000000000E+07     _
                0.70553656250000000E+06      0.93242620000000000E+07     _
                0.70554531250000000E+06      0.93242610000000000E+07     _
                0.70555268750000000E+06      0.93242590000000000E+07     _
                0.70556643750000000E+06      0.93242570000000000E+07     _
                0.70557612500000000E+06      0.93242540000000000E+07     _
                0.70558668750000000E+06      0.93242500000000000E+07     _
                0.70559318750000000E+06      0.93242410000000000E+07     _
                0.70559750000000000E+06      0.93242310000000000E+07     _
                0.70560262500000000E+06      0.93242220000000000E+07     _
                0.70560787500000000E+06      0.93242130000000000E+07     _
                0.70561387500000000E+06      0.93242060000000000E+07     _
                0.70567856250000000E+06      0.93241890000000000E+07     _
                0.70577218750000000E+06      0.93242060000000000E+07     _
                0.70583675000000000E+06      0.93242200000000000E+07     _
                0.70588343750000000E+06      0.93242390000000000E+07     _
                0.70592931250000000E+06      0.93242640000000000E+07     _
                0.70590256250000000E+06      0.93244620000000000E+07     _
                0.70596343750000000E+06      0.93245510000000000E+07     _
                0.70610225000000000E+06      0.93247260000000000E+07     _
                0.70610793750000000E+06      0.93247230000000000E+07     _
                0.70590881250000000E+06      0.93244620000000000E+07     _
                0.70593825000000000E+06      0.93242120000000000E+07     _
                0.70598112500000000E+06      0.93239010000000000E+07     _
                0.70565118750000000E+06      0.93238350000000000E+07     _
                0.99999902343750000E+03      0.99999902343750000E+03     _
                0.70330043750000000E+06      0.93232830000000000E+07     _
                0.70320987500000000E+06      0.93232010000000000E+07     _
                0.70309843750000000E+06      0.93230900000000000E+07     _
                0.70310487500000000E+06      0.93230170000000000E+07     _
                0.70297106250000000E+06      0.93230160000000000E+07     _
                0.70296706250000000E+06      0.93230990000000000E+07     _
                0.70283206250000000E+06      0.93231030000000000E+07     _
                0.70258131250000000E+06      0.93230670000000000E+07     _
                0.70256825000000000E+06      0.93230790000000000E+07     _
                0.70254056250000000E+06      0.93230770000000000E+07     _
                0.70252712500000000E+06      0.93230900000000000E+07     _
                0.70250725000000000E+06      0.93231670000000000E+07     _
                0.70243731250000000E+06      0.93231690000000000E+07     _
                0.70240518750000000E+06      0.93234270000000000E+07     _
                0.70242268750000000E+06      0.93234610000000000E+07     _
                0.70240475000000000E+06      0.93235680000000000E+07     _
                0.70275018750000000E+06      0.93235220000000000E+07     _
                0.70324150000000000E+06      0.93234570000000000E+07     _
                0.70326487500000000E+06      0.93234410000000000E+07     _
                0.70327787500000000E+06      0.93234270000000000E+07     _
                0.70328687500000000E+06      0.93234150000000000E+07     _
                0.70329900000000000E+06      0.93233810000000000E+07     _
                0.70330825000000000E+06      0.93233490000000000E+07     _
                0.70331087500000000E+06      0.93233300000000000E+07     _
                0.70331306250000000E+06      0.93233130000000000E+07     _
                0.70330043750000000E+06      0.93232830000000000E+07  
                                                                      
  $                                                                   
                                                                      
  $***************************** OUTPUT REQUEST **************************
                                                                      
  $                                                                   
                                                                      
  QUANTITY HSIGN   excv=-999.0                                        
                                                                      
  QUANTITY DIR     excv=-999.0                                        
                                                                      
  QUANTITY TM01    excv=-999.0                                        
                                                                      
  QUANTITY DEPTH   excv=-999.0                                        
                                                                      
  QUANTITY VELOC   excv=-999.0                                        
                                                                      
  QUANTITY TRANSP  excv=-999.0                                        
                                                                      
  QUANTITY DSPR    excv=-999.0                                        
                                                                      
  QUANTITY DISSIP  excv=-999.0                                        
                                                                      
  QUANTITY LEAK    excv=-999.0                                        
                                                                      
  QUANTITY QB      excv=-999.0                                        
                                                                      
  QUANTITY XP      excv=-999.0                                        
                                                                      
  QUANTITY YP      excv=-999.0                                        
                                                                      
  QUANTITY DIST    excv=-999.0                                        
                                                                      
  QUANTITY UBOT    excv=-999.0                                        
                                                                      
  QUANTITY STEEPW  excv=-999.0                                        
                                                                      
  QUANTITY WLENGTH excv=-999.0                                        
                                                                      
  QUANTITY FORCES  excv=-999.0                                        
                                                                      
  QUANTITY RTP     excv=-999.0                                        
                                                                      
  QUANTITY PDIR    excv=-999.0                                        
                                                                      
  QUANTITY WIND    excv=-999.0                                        
                                                                      
  QUANTITY TPS     excv=-999.0                                        
                                                                      
  QUANTITY TM02    excv=-999.0                                        
                                                                      
  QUANTITY TMM10   excv=-999.0                                        
                                                                      
  QUANTITY DHSIGN  excv=-999.0                                        
                                                                      
  QUANTITY DRTM01  excv=-999.0                                        
                                                                      
  QUANTITY SETUP   excv=-999.0                                        
                                                                      
  $                                                                   
                                                                      
  TABLE 'COMPGRID' NOHEAD 'SWANOUT1'  _                               
   HSIGN    DIR      TM01     DEPTH    VELOC    TRANSP _              
   DSPR     DISSIP   LEAK     QB       XP       YP     _              
   DIST     UBOT     STEEPW   WLENGTH  FORCES   RTP    _              
   PDIR     WIND                                                      
                                                                      
  $                                                                   
                                                                      
  TABLE 'COMPGRID' NOHEAD 'SWANOUT2'  _                               
   TPS      TM02     TMM10    DHSIGN   DRTM01   SETUP  _              
  $                                                                   
                                                                      
  $                                                                   
                                                                      
  POINTS 'skenario' _                                                 
  FILE 'skenario-1.loc'                                               
                                                                      
  $                                                                   
                                                                      
  TABLE 'skenario' HEAD 'skenario-1.locn3.tab' XP YP DEP HS DIR RTP TM01 _
                                      DSPR UBOT WIND VEL              
                                                                      
  SPEC  'skenario' SPEC1D 'skenario-1.locn3.sp1'                      
                                                                      
  SPEC  'skenario' SPEC2D 'skenarion3.sp2'                            
                                                                      
  $                                                                   
                                                                      
  $                                                                   
                                                                      
  TEST  ITEST=   0  ITRACE=   0                                       
                                                                      
  COMPUTE STAT   20260213.000000                                      
 ** Warning          : relative frequency resolution (df/f) deviates more
 ** Warning          : than 5% from 10%-resolution. This may be problematic
 ** Warning          : when quadruplets are approximated by means of DIA.
  ---------------------------------------------------------------     
  First guess by 2nd generation model flags for first iteration:      
  ITER       1 GRWMX      0.1000E+23 ALFA       0.0000E+00            
  IWIND      2 IWCAP      0 IQUAD      0                              
  ITRIAD     0 IBOT       1 ISURF      1                              
  ---------------------------------------------------------------     
 iteration    1; sweep 1                                              
 iteration    1; sweep 2                                              
 iteration    1; sweep 3                                              
 iteration    1; sweep 4                                              
 accuracy OK in   3.28 % of wet grid points ( 98.00 % required)       
                                                                      
  ---------------------------------------------------------------     
  Options given by user are activated for proceeding calculation:     
  ITER       2 GRWMX      0.1000E+00 ALFA       0.0000E+00            
  IWIND      3 IWCAP      1 IQUAD      2                              
  ITRIAD     0 IBOT       1 ISURF      1                              
  ---------------------------------------------------------------     
 iteration    2; sweep 1                                              
 iteration    2; sweep 2                                              
 iteration    2; sweep 3                                              
 iteration    2; sweep 4                                              
 accuracy OK in  91.23 % of wet grid points ( 98.00 % required)       
                                                                      
 iteration    3; sweep 1                                              
 iteration    3; sweep 2                                              
 iteration    3; sweep 3                                              
 iteration    3; sweep 4                                              
 accuracy OK in  95.16 % of wet grid points ( 98.00 % required)       
                                                                      
 iteration    4; sweep 1                                              
 iteration    4; sweep 2                                              
 iteration    4; sweep 3                                              
 iteration    4; sweep 4                                              
 accuracy OK in  96.18 % of wet grid points ( 98.00 % required)       
                                                                      
 iteration    5; sweep 1                                              
 iteration    5; sweep 2                                              
 iteration    5; sweep 3                                              
 iteration    5; sweep 4                                              
 accuracy OK in  99.94 % of wet grid points ( 98.00 % required)       
                                                                      
  ** WARNING : Differences in wave height at the boundary             
 Relative difference between input and computation >=   0.10          
                         Hs[m]      Hs[m]      Hs[-]                  
     ix    iy  index   (input) (computed) (relative)                  
  --------------------------------------------------                  
     2    26     33       1.37       1.63       0.19                  
     3    25     63       1.35       1.56       0.16                  
     4    25     94       1.34       1.61       0.21                  
     5    25    125       1.32       1.55       0.17                  
     6    25    156       1.31       1.56       0.19                  
     7    25    187       1.30       1.69       0.30                  
     8    25    219       1.28       1.67       0.30                  
     8    24    218       1.28       1.41       0.10                  
     9    24    250       1.26       1.54       0.22                  
    10    24    282       1.25       1.65       0.32                  
    11    24    314       1.24       1.68       0.36                  
    12    24    346       1.22       1.70       0.39                  
    13    24    378       1.21       1.66       0.37                  
    14    24    411       1.20       1.74       0.45                  
    14    23    410       1.19       1.44       0.21                  
    15    23    444       1.17       1.64       0.40                  
    15    22    443       1.17       1.35       0.16                  
    16    22    478       1.15       1.59       0.38                  
    16    21    477       1.14       1.28       0.12                  
    17    21    519       1.13       1.45       0.29                  
    18    13    561       1.04       0.94       0.10                  
    82    13   3944       0.01       0.00       0.55                  
    18    12    560       1.03       0.91       0.12                  
    82    12   3943       0.51       0.26       0.49                  
    18    11    559       1.03       0.89       0.13                  
    82    11   3942       0.51       0.36       0.29                  
    82    10   3941       0.51       0.44       0.14                  
    82     9   3940       0.57       0.51       0.11                  
    24     7    860       0.88       0.00       1.00                  
    25     7    912       0.86       0.00       1.00                  
    29     4   1117       0.74       0.00       1.00                  
    30     4   1169       0.72       0.00       1.00                  
    31     4   1221       0.70       0.00       1.00                  
    32     4   1273       0.67       0.00       1.00                  
    33     4   1325       0.65       0.00       1.00                  
    34     4   1377       0.62       0.00       1.00                  
    35     4   1429       0.60       0.00       1.00                  
    36     4   1481       0.57       0.00       1.00                  
    37     4   1533       0.54       0.00       1.00                  
    38     4   1585       0.51       0.00       1.00                  
    39     4   1637       0.47       0.00       1.00                  
    40     4   1689       0.44       0.00       1.00                  
    41     4   1741       0.39       0.00       1.00                  
    42     4   1793       0.35       0.00       1.00                  
    43     4   1847       0.30       0.00       1.00                  
    70     4   3311       0.50       1.36       1.71                  
    71     4   3363       0.53       1.32       1.48                  
    72     4   3415       0.56       1.35       1.39                  
    73     4   3467       0.59       1.35       1.28                  
    74     4   3519       0.62       1.29       1.08                  
    75     4   3571       0.65       1.19       0.84                  
    76     4   3623       0.67       1.15       0.71                  
    77     4   3675       0.70       1.08       0.55                  
    78     4   3727       0.72       1.02       0.41                  
    79     4   3779       0.74       0.98       0.32                  
    80     4   3831       0.77       0.91       0.18                  
    81     4   3883       0.79       0.89       0.13                  
    43     3   1846       0.27       0.00       1.00                  
    43     2   1845       0.23       0.00       1.00                  
                                                                      
                                                                      
  STOP                                                                
