*
* Deltares, Delft3D-RGFGRID Version 4.18.01.18383, Sep  7 2011, 14:23:22
* File creation date: 2026-02-10, 10:16:08
*
Coordinate System = Cartesian
      75      68
 0 0 0
 ETA=    1   0.00000000000000000E+00   0.00000000000000000E+00   0.00000000000000000E+00   0.00000000000000000E+00   0.00000000000000000E+00
             0.00000000000000000E+00   0.00000000000000000E+00   0.00000000000000000E+00   0.00000000000000000E+00   0.00000000000000000E+00
             0.00000000000000000E+00   0.00000000000000000E+00   0.00000000000000000E+00   0.00000000000000000E+00   0.00000000000000000E+00
             0.00000000000000000E+00   0.00000000000000000E+00   0.00000000000000000E+00   0.00000000000000000E+00   0.00000000000000000E+00
             0.00000000000000000E+00   0.00000000000000000E+00   0.00000000000000000E+00   0.00000000000000000E+00   0.00000000000000000E+00
             0.00000000000000000E+00   0.00000000000000000E+00   0.00000000000000000E+00   7.02594162999999942E+05   7.02669162999999942E+05
             7.02744162999999942E+05   7.02819162999999942E+05   7.02894162999999942E+05   7.02969162999999942E+05   7.03044162999999942E+05
             7.03119162999999942E+05   7.03194162999999942E+05   7.03269162999999942E+05   7.03344162999999942E+05   7.03419162999999942E+05
             7.03494162999999942E+05   7.03569162999999942E+05   7.03644162999999942E+05   7.03719162999999942E+05   7.03794162999999942E+05
             7.03869162999999942E+05   7.03944162999999942E+05   7.04019162999999942E+05   7.04094162999999942E+05   7.04169162999999942E+05
             0.00000000000000000E+00   0.00000000000000000E+00   0.00000000000000000E+00   0.00000000000000000E+00   0.00000000000000000E+00
             0.00000000000000000E+00   0.00000000000000000E+00   0.00000000000000000E+00   0.00000000000000000E+00   0.00000000000000000E+00
             0.00000000000000000E+00   0.00000000000000000E+00   0.00000000000000000E+00   0.00000000000000000E+00   0.00000000000000000E+00
             0.00000000000000000E+00   0.00000000000000000E+00   0.00000000000000000E+00   0.00000000000000000E+00   0.00000000000000000E+00
             0.00000000000000000E+00   0.00000000000000000E+00   0.00000000000000000E+00   0.00000000000000000E+00   0.00000000000000000E+00
 ETA=    2   0.00000000000000000E+00   0.00000000000000000E+00   0.00000000000000000E+00   0.00000000000000000E+00   0.00000000000000000E+00
             0.00000000000000000E+00   0.00000000000000000E+00   0.00000000000000000E+00   0.00000000000000000E+00   0.00000000000000000E+00
             0.00000000000000000E+00   0.00000000000000000E+00   0.00000000000000000E+00   0.00000000000000000E+00   0.00000000000000000E+00
             0.00000000000000000E+00   0.00000000000000000E+00   0.00000000000000000E+00   0.00000000000000000E+00   0.00000000000000000E+00
             0.00000000000000000E+00   0.00000000000000000E+00   0.00000000000000000E+00   0.00000000000000000E+00   0.00000000000000000E+00
             7.02369162999999942E+05   7.02444162999999942E+05   7.02519162999999942E+05   7.02594162999999942E+05   7.02669162999999942E+05
             7.02744162999999942E+05   7.02819162999999942E+05   7.02894162999999942E+05   7.02969162999999942E+05   7.03044162999999942E+05
             7.03119162999999942E+05   7.03194162999999942E+05   7.03269162999999942E+05   7.03344162999999942E+05   7.03419162999999942E+05
             7.03494162999999942E+05   7.03569162999999942E+05   7.03644162999999942E+05   7.03719162999999942E+05   7.03794162999999942E+05
             7.03869162999999942E+05   7.03944162999999942E+05   7.04019162999999942E+05   7.04094162999999942E+05   7.04169162999999942E+05
             7.04244162999999942E+05   7.04319162999999942E+05   0.00000000000000000E+00   0.00000000000000000E+00   0.00000000000000000E+00
             0.00000000000000000E+00   0.00000000000000000E+00   0.00000000000000000E+00   0.00000000000000000E+00   0.00000000000000000E+00
             0.00000000000000000E+00   0.00000000000000000E+00   0.00000000000000000E+00   0.00000000000000000E+00   0.00000000000000000E+00
             0.00000000000000000E+00   0.00000000000000000E+00   0.00000000000000000E+00   0.00000000000000000E+00   0.00000000000000000E+00
             0.00000000000000000E+00   0.00000000000000000E+00   0.00000000000000000E+00   0.00000000000000000E+00   0.00000000000000000E+00
 ETA=    3   0.00000000000000000E+00   0.00000000000000000E+00   0.00000000000000000E+00   0.00000000000000000E+00   0.00000000000000000E+00
             0.00000000000000000E+00   0.00000000000000000E+00   0.00000000000000000E+00   0.00000000000000000E+00   0.00000000000000000E+00
             0.00000000000000000E+00   0.00000000000000000E+00   0.00000000000000000E+00   0.00000000000000000E+00   0.00000000000000000E+00
             0.00000000000000000E+00   0.00000000000000000E+00   0.00000000000000000E+00   0.00000000000000000E+00   0.00000000000000000E+00
             0.00000000000000000E+00   0.00000000000000000E+00   0.00000000000000000E+00   0.00000000000000000E+00   0.00000000000000000E+00
             7.02369162999999942E+05   7.02444162999999942E+05   7.02519162999999942E+05   7.02594162999999942E+05   7.02669162999999942E+05
             7.02744162999999942E+05   7.02819162999999942E+05   7.02894162999999942E+05   7.02969162999999942E+05   7.03044162999999942E+05
             7.03119162999999942E+05   7.03194162999999942E+05   7.03269162999999942E+05   7.03344162999999942E+05   7.03419162999999942E+05
             7.03494162999999942E+05   7.03569162999999942E+05   7.03644162999999942E+05   7.03719162999999942E+05   7.03794162999999942E+05
             7.03869162999999942E+05   7.03944162999999942E+05   7.04019162999999942E+05   7.04094162999999942E+05   7.04169162999999942E+05
             7.04244162999999942E+05   7.04319162999999942E+05   0.00000000000000000E+00   0.00000000000000000E+00   0.00000000000000000E+00
             7.04619162999999942E+05   7.04694162999999942E+05   7.04769162999999942E+05   0.00000000000000000E+00   0.00000000000000000E+00
             0.00000000000000000E+00   0.00000000000000000E+00   0.00000000000000000E+00   0.00000000000000000E+00   0.00000000000000000E+00
             0.00000000000000000E+00   0.00000000000000000E+00   0.00000000000000000E+00   0.00000000000000000E+00   0.00000000000000000E+00
             0.00000000000000000E+00   0.00000000000000000E+00   0.00000000000000000E+00   0.00000000000000000E+00   0.00000000000000000E+00
 ETA=    4   7.00494162999999942E+05   7.00569162999999942E+05   7.00644162999999942E+05   7.00719162999999942E+05   7.00794162999999942E+05
             7.00869162999999942E+05   7.00944162999999942E+05   7.01019162999999942E+05   0.00000000000000000E+00   0.00000000000000000E+00
             0.00000000000000000E+00   0.00000000000000000E+00   0.00000000000000000E+00   0.00000000000000000E+00   0.00000000000000000E+00
             0.00000000000000000E+00   0.00000000000000000E+00   0.00000000000000000E+00   0.00000000000000000E+00   0.00000000000000000E+00
             0.00000000000000000E+00   0.00000000000000000E+00   0.00000000000000000E+00   0.00000000000000000E+00   7.02294162999999942E+05
             7.02369162999999942E+05   7.02444162999999942E+05   7.02519162999999942E+05   7.02594162999999942E+05   7.02669162999999942E+05
             7.02744162999999942E+05   7.02819162999999942E+05   7.02894162999999942E+05   7.02969162999999942E+05   7.03044162999999942E+05
             7.03119162999999942E+05   7.03194162999999942E+05   7.03269162999999942E+05   7.03344162999999942E+05   7.03419162999999942E+05
             7.03494162999999942E+05   7.03569162999999942E+05   7.03644162999999942E+05   7.03719162999999942E+05   7.03794162999999942E+05
             7.03869162999999942E+05   7.03944162999999942E+05   7.04019162999999942E+05   7.04094162999999942E+05   7.04169162999999942E+05
             7.04244162999999942E+05   7.04319162999999942E+05   7.04394162999999942E+05   7.04469162999999942E+05   7.04544162999999942E+05
             7.04619162999999942E+05   7.04694162999999942E+05   7.04769162999999942E+05   7.04844162999999942E+05   7.04919162999999942E+05
             7.04994162999999942E+05   7.05069162999999942E+05   7.05144162999999942E+05   0.00000000000000000E+00   0.00000000000000000E+00
             0.00000000000000000E+00   0.00000000000000000E+00   0.00000000000000000E+00   0.00000000000000000E+00   0.00000000000000000E+00
             0.00000000000000000E+00   0.00000000000000000E+00   0.00000000000000000E+00   0.00000000000000000E+00   0.00000000000000000E+00
 ETA=    5   7.00494162999999942E+05   7.00569162999999942E+05   7.00644162999999942E+05   7.00719162999999942E+05   7.00794162999999942E+05
             7.00869162999999942E+05   7.00944162999999942E+05   7.01019162999999942E+05   0.00000000000000000E+00   0.00000000000000000E+00
             0.00000000000000000E+00   0.00000000000000000E+00   0.00000000000000000E+00   0.00000000000000000E+00   0.00000000000000000E+00
             0.00000000000000000E+00   0.00000000000000000E+00   0.00000000000000000E+00   0.00000000000000000E+00   0.00000000000000000E+00
             0.00000000000000000E+00   0.00000000000000000E+00   0.00000000000000000E+00   0.00000000000000000E+00   7.02294162999999942E+05
             7.02369162999999942E+05   7.02444162999999942E+05   7.02519162999999942E+05   7.02594162999999942E+05   7.02669162999999942E+05
             7.02744162999999942E+05   7.02819162999999942E+05   7.02894162999999942E+05   7.02969162999999942E+05   7.03044162999999942E+05
             7.03119162999999942E+05   7.03194162999999942E+05   7.03269162999999942E+05   7.03344162999999942E+05   7.03419162999999942E+05
             7.03494162999999942E+05   7.03569162999999942E+05   7.03644162999999942E+05   7.03719162999999942E+05   7.03794162999999942E+05
             7.03869162999999942E+05   7.03944162999999942E+05   7.04019162999999942E+05   7.04094162999999942E+05   7.04169162999999942E+05
             7.04244162999999942E+05   7.04319162999999942E+05   7.04394162999999942E+05   7.04469162999999942E+05   7.04544162999999942E+05
             7.04619162999999942E+05   7.04694162999999942E+05   7.04769162999999942E+05   7.04844162999999942E+05   7.04919162999999942E+05
             7.04994162999999942E+05   7.05069162999999942E+05   7.05144162999999942E+05   7.05219162999999942E+05   0.00000000000000000E+00
             0.00000000000000000E+00   0.00000000000000000E+00   0.00000000000000000E+00   0.00000000000000000E+00   0.00000000000000000E+00
             0.00000000000000000E+00   0.00000000000000000E+00   0.00000000000000000E+00   0.00000000000000000E+00   0.00000000000000000E+00
 ETA=    6   7.00494162999999942E+05   7.00569162999999942E+05   7.00644162999999942E+05   7.00719162999999942E+05   7.00794162999999942E+05
             7.00869162999999942E+05   7.00944162999999942E+05   7.01019162999999942E+05   0.00000000000000000E+00   0.00000000000000000E+00
             0.00000000000000000E+00   0.00000000000000000E+00   0.00000000000000000E+00   0.00000000000000000E+00   0.00000000000000000E+00
             0.00000000000000000E+00   0.00000000000000000E+00   0.00000000000000000E+00   0.00000000000000000E+00   0.00000000000000000E+00
             0.00000000000000000E+00   0.00000000000000000E+00   0.00000000000000000E+00   0.00000000000000000E+00   7.02294162999999942E+05
             7.02369162999999942E+05   7.02444162999999942E+05   7.02519162999999942E+05   7.02594162999999942E+05   7.02669162999999942E+05
             7.02744162999999942E+05   7.02819162999999942E+05   7.02894162999999942E+05   7.02969162999999942E+05   7.03044162999999942E+05
             7.03119162999999942E+05   7.03194162999999942E+05   7.03269162999999942E+05   7.03344162999999942E+05   7.03419162999999942E+05
             7.03494162999999942E+05   7.03569162999999942E+05   7.03644162999999942E+05   7.03719162999999942E+05   7.03794162999999942E+05
             7.03869162999999942E+05   7.03944162999999942E+05   7.04019162999999942E+05   7.04094162999999942E+05   7.04169162999999942E+05
             7.04244162999999942E+05   7.04319162999999942E+05   7.04394162999999942E+05   7.04469162999999942E+05   7.04544162999999942E+05
             7.04619162999999942E+05   7.04694162999999942E+05   7.04769162999999942E+05   7.04844162999999942E+05   7.04919162999999942E+05
             7.04994162999999942E+05   7.05069162999999942E+05   7.05144162999999942E+05   7.05219162999999942E+05   7.05294162999999942E+05
             7.05369162999999942E+05   0.00000000000000000E+00   0.00000000000000000E+00   0.00000000000000000E+00   0.00000000000000000E+00
             0.00000000000000000E+00   0.00000000000000000E+00   0.00000000000000000E+00   0.00000000000000000E+00   0.00000000000000000E+00
 ETA=    7   7.00494162999999942E+05   7.00569162999999942E+05   7.00644162999999942E+05   7.00719162999999942E+05   7.00794162999999942E+05
             7.00869162999999942E+05   7.00944162999999942E+05   7.01019162999999942E+05   7.01094162999999942E+05   0.00000000000000000E+00
             0.00000000000000000E+00   0.00000000000000000E+00   0.00000000000000000E+00   0.00000000000000000E+00   0.00000000000000000E+00
             0.00000000000000000E+00   0.00000000000000000E+00   0.00000000000000000E+00   0.00000000000000000E+00   0.00000000000000000E+00
             0.00000000000000000E+00   0.00000000000000000E+00   0.00000000000000000E+00   7.02219162999999942E+05   7.02294162999999942E+05
             7.02369162999999942E+05   7.02444162999999942E+05   7.02519162999999942E+05   7.02594162999999942E+05   7.02669162999999942E+05
             7.02744162999999942E+05   7.02819162999999942E+05   7.02894162999999942E+05   7.02969162999999942E+05   7.03044162999999942E+05
             7.03119162999999942E+05   7.03194162999999942E+05   7.03269162999999942E+05   7.03344162999999942E+05   7.03419162999999942E+05
             7.03494162999999942E+05   7.03569162999999942E+05   7.03644162999999942E+05   7.03719162999999942E+05   7.03794162999999942E+05
             7.03869162999999942E+05   7.03944162999999942E+05   7.04019162999999942E+05   7.04094162999999942E+05   7.04169162999999942E+05
             7.04244162999999942E+05   7.04319162999999942E+05   7.04394162999999942E+05   7.04469162999999942E+05   7.04544162999999942E+05
             7.04619162999999942E+05   7.04694162999999942E+05   7.04769162999999942E+05   7.04844162999999942E+05   7.04919162999999942E+05
             7.04994162999999942E+05   7.05069162999999942E+05   7.05144162999999942E+05   7.05219162999999942E+05   7.05294162999999942E+05
             7.05369162999999942E+05   7.05444162999999942E+05   7.05519162999999942E+05   0.00000000000000000E+00   0.00000000000000000E+00
             0.00000000000000000E+00   0.00000000000000000E+00   0.00000000000000000E+00   0.00000000000000000E+00   0.00000000000000000E+00
 ETA=    8   7.00494162999999942E+05   7.00569162999999942E+05   7.00644162999999942E+05   7.00719162999999942E+05   7.00794162999999942E+05
             7.00869162999999942E+05   7.00944162999999942E+05   7.01019162999999942E+05   7.01094162999999942E+05   0.00000000000000000E+00
             0.00000000000000000E+00   0.00000000000000000E+00   0.00000000000000000E+00   0.00000000000000000E+00   0.00000000000000000E+00
             0.00000000000000000E+00   0.00000000000000000E+00   0.00000000000000000E+00   0.00000000000000000E+00   7.01919162999999942E+05
             7.01994162999999942E+05   7.02069162999999942E+05   7.02144162999999942E+05   7.02219162999999942E+05   7.02294162999999942E+05
             7.02369162999999942E+05   7.02444162999999942E+05   7.02519162999999942E+05   7.02594162999999942E+05   7.02669162999999942E+05
             7.02744162999999942E+05   7.02819162999999942E+05   7.02894162999999942E+05   7.02969162999999942E+05   7.03044162999999942E+05
             7.03119162999999942E+05   7.03194162999999942E+05   7.03269162999999942E+05   7.03344162999999942E+05   7.03419162999999942E+05
             7.03494162999999942E+05   7.03569162999999942E+05   7.03644162999999942E+05   7.03719162999999942E+05   7.03794162999999942E+05
             7.03869162999999942E+05   7.03944162999999942E+05   7.04019162999999942E+05   7.04094162999999942E+05   7.04169162999999942E+05
             7.04244162999999942E+05   7.04319162999999942E+05   7.04394162999999942E+05   7.04469162999999942E+05   7.04544162999999942E+05
             7.04619162999999942E+05   7.04694162999999942E+05   7.04769162999999942E+05   7.04844162999999942E+05   7.04919162999999942E+05
             7.04994162999999942E+05   7.05069162999999942E+05   7.05144162999999942E+05   7.05219162999999942E+05   7.05294162999999942E+05
             7.05369162999999942E+05   7.05444162999999942E+05   7.05519162999999942E+05   7.05594162999999942E+05   0.00000000000000000E+00
             0.00000000000000000E+00   0.00000000000000000E+00   0.00000000000000000E+00   0.00000000000000000E+00   0.00000000000000000E+00
 ETA=    9   7.00494162999999942E+05   7.00569162999999942E+05   7.00644162999999942E+05   7.00719162999999942E+05   7.00794162999999942E+05
             7.00869162999999942E+05   7.00944162999999942E+05   7.01019162999999942E+05   7.01094162999999942E+05   0.00000000000000000E+00
             0.00000000000000000E+00   7.01319162999999942E+05   7.01394162999999942E+05   7.01469162999999942E+05   7.01544162999999942E+05
             7.01619162999999942E+05   7.01694162999999942E+05   7.01769162999999942E+05   7.01844162999999942E+05   7.01919162999999942E+05
             7.01994162999999942E+05   7.02069162999999942E+05   7.02144162999999942E+05   7.02219162999999942E+05   7.02294162999999942E+05
             7.02369162999999942E+05   7.02444162999999942E+05   7.02519162999999942E+05   7.02594162999999942E+05   7.02669162999999942E+05
             7.02744162999999942E+05   7.02819162999999942E+05   7.02894162999999942E+05   7.02969162999999942E+05   7.03044162999999942E+05
             7.03119162999999942E+05   7.03194162999999942E+05   7.03269162999999942E+05   7.03344162999999942E+05   7.03419162999999942E+05
             7.03494162999999942E+05   7.03569162999999942E+05   7.03644162999999942E+05   7.03719162999999942E+05   7.03794162999999942E+05
             7.03869162999999942E+05   7.03944162999999942E+05   7.04019162999999942E+05   7.04094162999999942E+05   7.04169162999999942E+05
             7.04244162999999942E+05   7.04319162999999942E+05   7.04394162999999942E+05   7.04469162999999942E+05   7.04544162999999942E+05
             7.04619162999999942E+05   7.04694162999999942E+05   7.04769162999999942E+05   7.04844162999999942E+05   7.04919162999999942E+05
             7.04994162999999942E+05   7.05069162999999942E+05   7.05144162999999942E+05   7.05219162999999942E+05   7.05294162999999942E+05
             7.05369162999999942E+05   7.05444162999999942E+05   7.05519162999999942E+05   7.05594162999999942E+05   0.00000000000000000E+00
             0.00000000000000000E+00   0.00000000000000000E+00   0.00000000000000000E+00   0.00000000000000000E+00   0.00000000000000000E+00
 ETA=   10   7.00494162999999942E+05   7.00569162999999942E+05   7.00644162999999942E+05   7.00719162999999942E+05   7.00794162999999942E+05
             7.00869162999999942E+05   7.00944162999999942E+05   7.01019162999999942E+05   7.01094162999999942E+05   7.01169162999999942E+05
             7.01244162999999942E+05   7.01319162999999942E+05   7.01394162999999942E+05   7.01469162999999942E+05   7.01544162999999942E+05
             7.01619162999999942E+05   7.01694162999999942E+05   7.01769162999999942E+05   7.01844162999999942E+05   7.01919162999999942E+05
             7.01994162999999942E+05   7.02069162999999942E+05   7.02144162999999942E+05   7.02219162999999942E+05   7.02294162999999942E+05
             7.02369162999999942E+05   7.02444162999999942E+05   7.02519162999999942E+05   7.02594162999999942E+05   7.02669162999999942E+05
             7.02744162999999942E+05   7.02819162999999942E+05   7.02894162999999942E+05   7.02969162999999942E+05   7.03044162999999942E+05
             7.03119162999999942E+05   7.03194162999999942E+05   7.03269162999999942E+05   7.03344162999999942E+05   7.03419162999999942E+05
             7.03494162999999942E+05   7.03569162999999942E+05   7.03644162999999942E+05   7.03719162999999942E+05   7.03794162999999942E+05
             7.03869162999999942E+05   7.03944162999999942E+05   7.04019162999999942E+05   7.04094162999999942E+05   7.04169162999999942E+05
             7.04244162999999942E+05   7.04319162999999942E+05   7.04394162999999942E+05   7.04469162999999942E+05   7.04544162999999942E+05
             7.04619162999999942E+05   7.04694162999999942E+05   7.04769162999999942E+05   7.04844162999999942E+05   7.04919162999999942E+05
             7.04994162999999942E+05   7.05069162999999942E+05   7.05144162999999942E+05   7.05219162999999942E+05   7.05294162999999942E+05
             7.05369162999999942E+05   7.05444162999999942E+05   7.05519162999999942E+05   7.05594162999999942E+05   0.00000000000000000E+00
             0.00000000000000000E+00   0.00000000000000000E+00   0.00000000000000000E+00   0.00000000000000000E+00   0.00000000000000000E+00
 ETA=   11   7.00494162999999942E+05   7.00569162999999942E+05   7.00644162999999942E+05   7.00719162999999942E+05   7.00794162999999942E+05
             7.00869162999999942E+05   7.00944162999999942E+05   7.01019162999999942E+05   7.01094162999999942E+05   7.01169162999999942E+05
             7.01244162999999942E+05   7.01319162999999942E+05   7.01394162999999942E+05   7.01469162999999942E+05   7.01544162999999942E+05
             7.01619162999999942E+05   7.01694162999999942E+05   7.01769162999999942E+05   7.01844162999999942E+05   7.01919162999999942E+05
             7.01994162999999942E+05   7.02069162999999942E+05   7.02144162999999942E+05   7.02219162999999942E+05   7.02294162999999942E+05
             7.02369162999999942E+05   7.02444162999999942E+05   7.02519162999999942E+05   7.02594162999999942E+05   7.02669162999999942E+05
             7.02744162999999942E+05   7.02819162999999942E+05   7.02894162999999942E+05   7.02969162999999942E+05   7.03044162999999942E+05
             7.03119162999999942E+05   7.03194162999999942E+05   7.03269162999999942E+05   7.03344162999999942E+05   7.03419162999999942E+05
             7.03494162999999942E+05   7.03569162999999942E+05   7.03644162999999942E+05   7.03719162999999942E+05   7.03794162999999942E+05
             7.03869162999999942E+05   7.03944162999999942E+05   7.04019162999999942E+05   7.04094162999999942E+05   7.04169162999999942E+05
             7.04244162999999942E+05   7.04319162999999942E+05   7.04394162999999942E+05   7.04469162999999942E+05   7.04544162999999942E+05
             7.04619162999999942E+05   7.04694162999999942E+05   7.04769162999999942E+05   7.04844162999999942E+05   7.04919162999999942E+05
             7.04994162999999942E+05   7.05069162999999942E+05   7.05144162999999942E+05   7.05219162999999942E+05   7.05294162999999942E+05
             0.00000000000000000E+00   0.00000000000000000E+00   0.00000000000000000E+00   0.00000000000000000E+00   0.00000000000000000E+00
             0.00000000000000000E+00   0.00000000000000000E+00   0.00000000000000000E+00   0.00000000000000000E+00   0.00000000000000000E+00
 ETA=   12   7.00494162999999942E+05   7.00569162999999942E+05   7.00644162999999942E+05   7.00719162999999942E+05   7.00794162999999942E+05
             7.00869162999999942E+05   7.00944162999999942E+05   7.01019162999999942E+05   7.01094162999999942E+05   7.01169162999999942E+05
             7.01244162999999942E+05   7.01319162999999942E+05   7.01394162999999942E+05   7.01469162999999942E+05   7.01544162999999942E+05
             7.01619162999999942E+05   7.01694162999999942E+05   7.01769162999999942E+05   7.01844162999999942E+05   7.01919162999999942E+05
             7.01994162999999942E+05   7.02069162999999942E+05   7.02144162999999942E+05   7.02219162999999942E+05   7.02294162999999942E+05
             7.02369162999999942E+05   7.02444162999999942E+05   7.02519162999999942E+05   7.02594162999999942E+05   7.02669162999999942E+05
             7.02744162999999942E+05   7.02819162999999942E+05   7.02894162999999942E+05   7.02969162999999942E+05   7.03044162999999942E+05
             7.03119162999999942E+05   7.03194162999999942E+05   7.03269162999999942E+05   7.03344162999999942E+05   7.03419162999999942E+05
             7.03494162999999942E+05   7.03569162999999942E+05   7.03644162999999942E+05   7.03719162999999942E+05   7.03794162999999942E+05
             7.03869162999999942E+05   7.03944162999999942E+05   7.04019162999999942E+05   7.04094162999999942E+05   7.04169162999999942E+05
             7.04244162999999942E+05   7.04319162999999942E+05   7.04394162999999942E+05   7.04469162999999942E+05   7.04544162999999942E+05
             7.04619162999999942E+05   7.04694162999999942E+05   7.04769162999999942E+05   7.04844162999999942E+05   7.04919162999999942E+05
             7.04994162999999942E+05   7.05069162999999942E+05   7.05144162999999942E+05   7.05219162999999942E+05   0.00000000000000000E+00
             0.00000000000000000E+00   0.00000000000000000E+00   0.00000000000000000E+00   0.00000000000000000E+00   0.00000000000000000E+00
             0.00000000000000000E+00   0.00000000000000000E+00   0.00000000000000000E+00   0.00000000000000000E+00   0.00000000000000000E+00
 ETA=   13   7.00494162999999942E+05   7.00569162999999942E+05   7.00644162999999942E+05   7.00719162999999942E+05   7.00794162999999942E+05
             7.00869162999999942E+05   7.00944162999999942E+05   7.01019162999999942E+05   7.01094162999999942E+05   7.01169162999999942E+05
             7.01244162999999942E+05   7.01319162999999942E+05   7.01394162999999942E+05   7.01469162999999942E+05   7.01544162999999942E+05
             7.01619162999999942E+05   7.01694162999999942E+05   7.01769162999999942E+05   7.01844162999999942E+05   7.01919162999999942E+05
             7.01994162999999942E+05   7.02069162999999942E+05   7.02144162999999942E+05   7.02219162999999942E+05   7.02294162999999942E+05
             7.02369162999999942E+05   7.02444162999999942E+05   7.02519162999999942E+05   7.02594162999999942E+05   7.02669162999999942E+05
             7.02744162999999942E+05   7.02819162999999942E+05   7.02894162999999942E+05   7.02969162999999942E+05   7.03044162999999942E+05
             7.03119162999999942E+05   7.03194162999999942E+05   7.03269162999999942E+05   7.03344162999999942E+05   7.03419162999999942E+05
             7.03494162999999942E+05   7.03569162999999942E+05   7.03644162999999942E+05   7.03719162999999942E+05   7.03794162999999942E+05
             7.03869162999999942E+05   7.03944162999999942E+05   7.04019162999999942E+05   7.04094162999999942E+05   7.04169162999999942E+05
             7.04244162999999942E+05   7.04319162999999942E+05   7.04394162999999942E+05   7.04469162999999942E+05   7.04544162999999942E+05
             7.04619162999999942E+05   7.04694162999999942E+05   7.04769162999999942E+05   7.04844162999999942E+05   7.04919162999999942E+05
             7.04994162999999942E+05   7.05069162999999942E+05   7.05144162999999942E+05   7.05219162999999942E+05   0.00000000000000000E+00
             0.00000000000000000E+00   0.00000000000000000E+00   0.00000000000000000E+00   0.00000000000000000E+00   0.00000000000000000E+00
             0.00000000000000000E+00   0.00000000000000000E+00   0.00000000000000000E+00   0.00000000000000000E+00   0.00000000000000000E+00
 ETA=   14   7.00494162999999942E+05   7.00569162999999942E+05   7.00644162999999942E+05   7.00719162999999942E+05   7.00794162999999942E+05
             7.00869162999999942E+05   7.00944162999999942E+05   7.01019162999999942E+05   7.01094162999999942E+05   7.01169162999999942E+05
             7.01244162999999942E+05   7.01319162999999942E+05   7.01394162999999942E+05   7.01469162999999942E+05   7.01544162999999942E+05
             7.01619162999999942E+05   7.01694162999999942E+05   7.01769162999999942E+05   7.01844162999999942E+05   7.01919162999999942E+05
             7.01994162999999942E+05   7.02069162999999942E+05   7.02144162999999942E+05   7.02219162999999942E+05   7.02294162999999942E+05
             7.02369162999999942E+05   7.02444162999999942E+05   7.02519162999999942E+05   7.02594162999999942E+05   7.02669162999999942E+05
             7.02744162999999942E+05   7.02819162999999942E+05   7.02894162999999942E+05   7.02969162999999942E+05   7.03044162999999942E+05
             7.03119162999999942E+05   7.03194162999999942E+05   7.03269162999999942E+05   7.03344162999999942E+05   7.03419162999999942E+05
             7.03494162999999942E+05   7.03569162999999942E+05   7.03644162999999942E+05   7.03719162999999942E+05   7.03794162999999942E+05
             7.03869162999999942E+05   7.03944162999999942E+05   7.04019162999999942E+05   7.04094162999999942E+05   7.04169162999999942E+05
             7.04244162999999942E+05   7.04319162999999942E+05   7.04394162999999942E+05   7.04469162999999942E+05   7.04544162999999942E+05
             7.04619162999999942E+05   7.04694162999999942E+05   7.04769162999999942E+05   7.04844162999999942E+05   7.04919162999999942E+05
             7.04994162999999942E+05   7.05069162999999942E+05   7.05144162999999942E+05   7.05219162999999942E+05   7.05294162999999942E+05
             0.00000000000000000E+00   0.00000000000000000E+00   0.00000000000000000E+00   0.00000000000000000E+00   0.00000000000000000E+00
             0.00000000000000000E+00   0.00000000000000000E+00   0.00000000000000000E+00   0.00000000000000000E+00   0.00000000000000000E+00
 ETA=   15   7.00494162999999942E+05   7.00569162999999942E+05   7.00644162999999942E+05   7.00719162999999942E+05   7.00794162999999942E+05
             7.00869162999999942E+05   7.00944162999999942E+05   7.01019162999999942E+05   7.01094162999999942E+05   7.01169162999999942E+05
             7.01244162999999942E+05   7.01319162999999942E+05   7.01394162999999942E+05   7.01469162999999942E+05   7.01544162999999942E+05
             7.01619162999999942E+05   7.01694162999999942E+05   7.01769162999999942E+05   7.01844162999999942E+05   7.01919162999999942E+05
             7.01994162999999942E+05   7.02069162999999942E+05   7.02144162999999942E+05   7.02219162999999942E+05   7.02294162999999942E+05
             7.02369162999999942E+05   7.02444162999999942E+05   7.02519162999999942E+05   7.02594162999999942E+05   7.02669162999999942E+05
             7.02744162999999942E+05   7.02819162999999942E+05   7.02894162999999942E+05   7.02969162999999942E+05   7.03044162999999942E+05
             7.03119162999999942E+05   7.03194162999999942E+05   7.03269162999999942E+05   7.03344162999999942E+05   7.03419162999999942E+05
             7.03494162999999942E+05   7.03569162999999942E+05   7.03644162999999942E+05   7.03719162999999942E+05   7.03794162999999942E+05
             7.03869162999999942E+05   7.03944162999999942E+05   7.04019162999999942E+05   7.04094162999999942E+05   7.04169162999999942E+05
             7.04244162999999942E+05   7.04319162999999942E+05   7.04394162999999942E+05   7.04469162999999942E+05   7.04544162999999942E+05
             7.04619162999999942E+05   7.04694162999999942E+05   7.04769162999999942E+05   7.04844162999999942E+05   7.04919162999999942E+05
             7.04994162999999942E+05   7.05069162999999942E+05   7.05144162999999942E+05   7.05219162999999942E+05   7.05294162999999942E+05
             7.05369162999999942E+05   0.00000000000000000E+00   0.00000000000000000E+00   0.00000000000000000E+00   0.00000000000000000E+00
             0.00000000000000000E+00   0.00000000000000000E+00   0.00000000000000000E+00   0.00000000000000000E+00   0.00000000000000000E+00
 ETA=   16   7.00494162999999942E+05   7.00569162999999942E+05   7.00644162999999942E+05   7.00719162999999942E+05   7.00794162999999942E+05
             7.00869162999999942E+05   7.00944162999999942E+05   7.01019162999999942E+05   7.01094162999999942E+05   7.01169162999999942E+05
             7.01244162999999942E+05   7.01319162999999942E+05   7.01394162999999942E+05   7.01469162999999942E+05   7.01544162999999942E+05
             7.01619162999999942E+05   7.01694162999999942E+05   7.01769162999999942E+05   7.01844162999999942E+05   7.01919162999999942E+05
             7.01994162999999942E+05   7.02069162999999942E+05   7.02144162999999942E+05   7.02219162999999942E+05   7.02294162999999942E+05
             7.02369162999999942E+05   7.02444162999999942E+05   7.02519162999999942E+05   7.02594162999999942E+05   7.02669162999999942E+05
             7.02744162999999942E+05   7.02819162999999942E+05   7.02894162999999942E+05   7.02969162999999942E+05   7.03044162999999942E+05
             7.03119162999999942E+05   7.03194162999999942E+05   7.03269162999999942E+05   7.03344162999999942E+05   7.03419162999999942E+05
             7.03494162999999942E+05   7.03569162999999942E+05   7.03644162999999942E+05   7.03719162999999942E+05   7.03794162999999942E+05
             7.03869162999999942E+05   7.03944162999999942E+05   7.04019162999999942E+05   7.04094162999999942E+05   7.04169162999999942E+05
             7.04244162999999942E+05   7.04319162999999942E+05   7.04394162999999942E+05   7.04469162999999942E+05   7.04544162999999942E+05
             7.04619162999999942E+05   7.04694162999999942E+05   7.04769162999999942E+05   7.04844162999999942E+05   7.04919162999999942E+05
             7.04994162999999942E+05   7.05069162999999942E+05   7.05144162999999942E+05   7.05219162999999942E+05   7.05294162999999942E+05
             7.05369162999999942E+05   0.00000000000000000E+00   0.00000000000000000E+00   7.05594162999999942E+05   7.05669162999999942E+05
             7.05744162999999942E+05   7.05819162999999942E+05   7.05894162999999942E+05   0.00000000000000000E+00   0.00000000000000000E+00
 ETA=   17   7.00494162999999942E+05   7.00569162999999942E+05   7.00644162999999942E+05   7.00719162999999942E+05   7.00794162999999942E+05
             7.00869162999999942E+05   7.00944162999999942E+05   7.01019162999999942E+05   7.01094162999999942E+05   7.01169162999999942E+05
             7.01244162999999942E+05   7.01319162999999942E+05   7.01394162999999942E+05   7.01469162999999942E+05   7.01544162999999942E+05
             7.01619162999999942E+05   7.01694162999999942E+05   7.01769162999999942E+05   7.01844162999999942E+05   7.01919162999999942E+05
             7.01994162999999942E+05   7.02069162999999942E+05   7.02144162999999942E+05   7.02219162999999942E+05   7.02294162999999942E+05
             7.02369162999999942E+05   7.02444162999999942E+05   7.02519162999999942E+05   7.02594162999999942E+05   7.02669162999999942E+05
             7.02744162999999942E+05   7.02819162999999942E+05   7.02894162999999942E+05   7.02969162999999942E+05   7.03044162999999942E+05
             7.03119162999999942E+05   7.03194162999999942E+05   7.03269162999999942E+05   7.03344162999999942E+05   7.03419162999999942E+05
             7.03494162999999942E+05   7.03569162999999942E+05   7.03644162999999942E+05   7.03719162999999942E+05   7.03794162999999942E+05
             7.03869162999999942E+05   7.03944162999999942E+05   7.04019162999999942E+05   7.04094162999999942E+05   7.04169162999999942E+05
             7.04244162999999942E+05   7.04319162999999942E+05   7.04394162999999942E+05   7.04469162999999942E+05   7.04544162999999942E+05
             7.04619162999999942E+05   7.04694162999999942E+05   7.04769162999999942E+05   7.04844162999999942E+05   7.04919162999999942E+05
             7.04994162999999942E+05   7.05069162999999942E+05   7.05144162999999942E+05   7.05219162999999942E+05   7.05294162999999942E+05
             7.05369162999999942E+05   7.05444162999999942E+05   7.05519162999999942E+05   7.05594162999999942E+05   7.05669162999999942E+05
             7.05744162999999942E+05   7.05819162999999942E+05   7.05894162999999942E+05   0.00000000000000000E+00   0.00000000000000000E+00
 ETA=   18   7.00494162999999942E+05   7.00569162999999942E+05   7.00644162999999942E+05   7.00719162999999942E+05   7.00794162999999942E+05
             7.00869162999999942E+05   7.00944162999999942E+05   7.01019162999999942E+05   7.01094162999999942E+05   7.01169162999999942E+05
             7.01244162999999942E+05   7.01319162999999942E+05   7.01394162999999942E+05   7.01469162999999942E+05   7.01544162999999942E+05
             7.01619162999999942E+05   7.01694162999999942E+05   7.01769162999999942E+05   7.01844162999999942E+05   7.01919162999999942E+05
             7.01994162999999942E+05   7.02069162999999942E+05   7.02144162999999942E+05   7.02219162999999942E+05   7.02294162999999942E+05
             7.02369162999999942E+05   7.02444162999999942E+05   7.02519162999999942E+05   7.02594162999999942E+05   7.02669162999999942E+05
             7.02744162999999942E+05   7.02819162999999942E+05   7.02894162999999942E+05   7.02969162999999942E+05   7.03044162999999942E+05
             7.03119162999999942E+05   7.03194162999999942E+05   7.03269162999999942E+05   7.03344162999999942E+05   7.03419162999999942E+05
             7.03494162999999942E+05   7.03569162999999942E+05   7.03644162999999942E+05   7.03719162999999942E+05   7.03794162999999942E+05
             7.03869162999999942E+05   7.03944162999999942E+05   7.04019162999999942E+05   7.04094162999999942E+05   7.04169162999999942E+05
             7.04244162999999942E+05   7.04319162999999942E+05   7.04394162999999942E+05   7.04469162999999942E+05   7.04544162999999942E+05
             7.04619162999999942E+05   7.04694162999999942E+05   7.04769162999999942E+05   7.04844162999999942E+05   7.04919162999999942E+05
             7.04994162999999942E+05   7.05069162999999942E+05   7.05144162999999942E+05   7.05219162999999942E+05   7.05294162999999942E+05
             7.05369162999999942E+05   7.05444162999999942E+05   7.05519162999999942E+05   7.05594162999999942E+05   7.05669162999999942E+05
             7.05744162999999942E+05   7.05819162999999942E+05   7.05894162999999942E+05   0.00000000000000000E+00   0.00000000000000000E+00
 ETA=   19   7.00494162999999942E+05   7.00569162999999942E+05   7.00644162999999942E+05   7.00719162999999942E+05   7.00794162999999942E+05
             7.00869162999999942E+05   7.00944162999999942E+05   7.01019162999999942E+05   7.01094162999999942E+05   7.01169162999999942E+05
             7.01244162999999942E+05   7.01319162999999942E+05   7.01394162999999942E+05   7.01469162999999942E+05   7.01544162999999942E+05
             7.01619162999999942E+05   7.01694162999999942E+05   7.01769162999999942E+05   7.01844162999999942E+05   7.01919162999999942E+05
             7.01994162999999942E+05   7.02069162999999942E+05   7.02144162999999942E+05   7.02219162999999942E+05   7.02294162999999942E+05
             7.02369162999999942E+05   7.02444162999999942E+05   7.02519162999999942E+05   7.02594162999999942E+05   7.02669162999999942E+05
             7.02744162999999942E+05   7.02819162999999942E+05   7.02894162999999942E+05   7.02969162999999942E+05   7.03044162999999942E+05
             7.03119162999999942E+05   7.03194162999999942E+05   7.03269162999999942E+05   7.03344162999999942E+05   7.03419162999999942E+05
             7.03494162999999942E+05   7.03569162999999942E+05   7.03644162999999942E+05   7.03719162999999942E+05   7.03794162999999942E+05
             7.03869162999999942E+05   7.03944162999999942E+05   7.04019162999999942E+05   7.04094162999999942E+05   7.04169162999999942E+05
             7.04244162999999942E+05   7.04319162999999942E+05   7.04394162999999942E+05   7.04469162999999942E+05   7.04544162999999942E+05
             7.04619162999999942E+05   7.04694162999999942E+05   7.04769162999999942E+05   7.04844162999999942E+05   7.04919162999999942E+05
             7.04994162999999942E+05   7.05069162999999942E+05   7.05144162999999942E+05   7.05219162999999942E+05   7.05294162999999942E+05
             7.05369162999999942E+05   7.05444162999999942E+05   7.05519162999999942E+05   7.05594162999999942E+05   7.05669162999999942E+05
             7.05744162999999942E+05   7.05819162999999942E+05   7.05894162999999942E+05   0.00000000000000000E+00   0.00000000000000000E+00
 ETA=   20   7.00494162999999942E+05   7.00569162999999942E+05   7.00644162999999942E+05   7.00719162999999942E+05   7.00794162999999942E+05
             7.00869162999999942E+05   7.00944162999999942E+05   7.01019162999999942E+05   7.01094162999999942E+05   7.01169162999999942E+05
             7.01244162999999942E+05   7.01319162999999942E+05   7.01394162999999942E+05   7.01469162999999942E+05   7.01544162999999942E+05
             7.01619162999999942E+05   7.01694162999999942E+05   7.01769162999999942E+05   7.01844162999999942E+05   7.01919162999999942E+05
             7.01994162999999942E+05   7.02069162999999942E+05   7.02144162999999942E+05   7.02219162999999942E+05   7.02294162999999942E+05
             7.02369162999999942E+05   7.02444162999999942E+05   7.02519162999999942E+05   7.02594162999999942E+05   7.02669162999999942E+05
             7.02744162999999942E+05   7.02819162999999942E+05   7.02894162999999942E+05   7.02969162999999942E+05   7.03044162999999942E+05
             7.03119162999999942E+05   7.03194162999999942E+05   7.03269162999999942E+05   7.03344162999999942E+05   7.03419162999999942E+05
             7.03494162999999942E+05   7.03569162999999942E+05   7.03644162999999942E+05   7.03719162999999942E+05   7.03794162999999942E+05
             7.03869162999999942E+05   7.03944162999999942E+05   7.04019162999999942E+05   7.04094162999999942E+05   7.04169162999999942E+05
             7.04244162999999942E+05   7.04319162999999942E+05   7.04394162999999942E+05   7.04469162999999942E+05   7.04544162999999942E+05
             7.04619162999999942E+05   7.04694162999999942E+05   7.04769162999999942E+05   7.04844162999999942E+05   7.04919162999999942E+05
             7.04994162999999942E+05   7.05069162999999942E+05   7.05144162999999942E+05   7.05219162999999942E+05   7.05294162999999942E+05
             7.05369162999999942E+05   7.05444162999999942E+05   7.05519162999999942E+05   7.05594162999999942E+05   7.05669162999999942E+05
             7.05744162999999942E+05   7.05819162999999942E+05   7.05894162999999942E+05   7.05969162999999942E+05   0.00000000000000000E+00
 ETA=   21   7.00494162999999942E+05   7.00569162999999942E+05   7.00644162999999942E+05   7.00719162999999942E+05   7.00794162999999942E+05
             7.00869162999999942E+05   7.00944162999999942E+05   7.01019162999999942E+05   7.01094162999999942E+05   7.01169162999999942E+05
             7.01244162999999942E+05   7.01319162999999942E+05   7.01394162999999942E+05   7.01469162999999942E+05   7.01544162999999942E+05
             7.01619162999999942E+05   7.01694162999999942E+05   7.01769162999999942E+05   7.01844162999999942E+05   7.01919162999999942E+05
             7.01994162999999942E+05   7.02069162999999942E+05   7.02144162999999942E+05   7.02219162999999942E+05   7.02294162999999942E+05
             7.02369162999999942E+05   7.02444162999999942E+05   7.02519162999999942E+05   7.02594162999999942E+05   7.02669162999999942E+05
             7.02744162999999942E+05   7.02819162999999942E+05   7.02894162999999942E+05   7.02969162999999942E+05   7.03044162999999942E+05
             7.03119162999999942E+05   7.03194162999999942E+05   7.03269162999999942E+05   7.03344162999999942E+05   7.03419162999999942E+05
             7.03494162999999942E+05   7.03569162999999942E+05   7.03644162999999942E+05   7.03719162999999942E+05   7.03794162999999942E+05
             7.03869162999999942E+05   7.03944162999999942E+05   7.04019162999999942E+05   7.04094162999999942E+05   7.04169162999999942E+05
             7.04244162999999942E+05   7.04319162999999942E+05   7.04394162999999942E+05   7.04469162999999942E+05   7.04544162999999942E+05
             7.04619162999999942E+05   7.04694162999999942E+05   7.04769162999999942E+05   7.04844162999999942E+05   7.04919162999999942E+05
             7.04994162999999942E+05   7.05069162999999942E+05   7.05144162999999942E+05   7.05219162999999942E+05   7.05294162999999942E+05
             7.05369162999999942E+05   7.05444162999999942E+05   7.05519162999999942E+05   7.05594162999999942E+05   7.05669162999999942E+05
             7.05744162999999942E+05   7.05819162999999942E+05   7.05894162999999942E+05   7.05969162999999942E+05   7.06044162999999942E+05
 ETA=   22   7.00494162999999942E+05   7.00569162999999942E+05   7.00644162999999942E+05   7.00719162999999942E+05   7.00794162999999942E+05
             7.00869162999999942E+05   7.00944162999999942E+05   7.01019162999999942E+05   7.01094162999999942E+05   7.01169162999999942E+05
             7.01244162999999942E+05   7.01319162999999942E+05   7.01394162999999942E+05   7.01469162999999942E+05   7.01544162999999942E+05
             7.01619162999999942E+05   7.01694162999999942E+05   7.01769162999999942E+05   7.01844162999999942E+05   7.01919162999999942E+05
             7.01994162999999942E+05   7.02069162999999942E+05   7.02144162999999942E+05   7.02219162999999942E+05   7.02294162999999942E+05
             7.02369162999999942E+05   7.02444162999999942E+05   7.02519162999999942E+05   7.02594162999999942E+05   7.02669162999999942E+05
             7.02744162999999942E+05   7.02819162999999942E+05   7.02894162999999942E+05   7.02969162999999942E+05   7.03044162999999942E+05
             7.03119162999999942E+05   7.03194162999999942E+05   7.03269162999999942E+05   7.03344162999999942E+05   7.03419162999999942E+05
             7.03494162999999942E+05   7.03569162999999942E+05   7.03644162999999942E+05   7.03719162999999942E+05   7.03794162999999942E+05
             7.03869162999999942E+05   7.03944162999999942E+05   7.04019162999999942E+05   7.04094162999999942E+05   7.04169162999999942E+05
             7.04244162999999942E+05   7.04319162999999942E+05   7.04394162999999942E+05   7.04469162999999942E+05   7.04544162999999942E+05
             7.04619162999999942E+05   7.04694162999999942E+05   7.04769162999999942E+05   7.04844162999999942E+05   7.04919162999999942E+05
             7.04994162999999942E+05   7.05069162999999942E+05   7.05144162999999942E+05   7.05219162999999942E+05   7.05294162999999942E+05
             7.05369162999999942E+05   7.05444162999999942E+05   7.05519162999999942E+05   7.05594162999999942E+05   7.05669162999999942E+05
             7.05744162999999942E+05   7.05819162999999942E+05   7.05894162999999942E+05   7.05969162999999942E+05   7.06044162999999942E+05
 ETA=   23   7.00494162999999942E+05   7.00569162999999942E+05   7.00644162999999942E+05   7.00719162999999942E+05   7.00794162999999942E+05
             7.00869162999999942E+05   7.00944162999999942E+05   7.01019162999999942E+05   7.01094162999999942E+05   7.01169162999999942E+05
             7.01244162999999942E+05   7.01319162999999942E+05   7.01394162999999942E+05   7.01469162999999942E+05   7.01544162999999942E+05
             7.01619162999999942E+05   7.01694162999999942E+05   7.01769162999999942E+05   7.01844162999999942E+05   7.01919162999999942E+05
             7.01994162999999942E+05   7.02069162999999942E+05   7.02144162999999942E+05   7.02219162999999942E+05   7.02294162999999942E+05
             7.02369162999999942E+05   7.02444162999999942E+05   7.02519162999999942E+05   7.02594162999999942E+05   7.02669162999999942E+05
             7.02744162999999942E+05   7.02819162999999942E+05   7.02894162999999942E+05   7.02969162999999942E+05   7.03044162999999942E+05
             7.03119162999999942E+05   7.03194162999999942E+05   7.03269162999999942E+05   7.03344162999999942E+05   7.03419162999999942E+05
             7.03494162999999942E+05   7.03569162999999942E+05   7.03644162999999942E+05   7.03719162999999942E+05   7.03794162999999942E+05
             7.03869162999999942E+05   7.03944162999999942E+05   7.04019162999999942E+05   7.04094162999999942E+05   7.04169162999999942E+05
             7.04244162999999942E+05   7.04319162999999942E+05   7.04394162999999942E+05   7.04469162999999942E+05   7.04544162999999942E+05
             7.04619162999999942E+05   7.04694162999999942E+05   7.04769162999999942E+05   7.04844162999999942E+05   7.04919162999999942E+05
             7.04994162999999942E+05   7.05069162999999942E+05   7.05144162999999942E+05   7.05219162999999942E+05   7.05294162999999942E+05
             7.05369162999999942E+05   7.05444162999999942E+05   7.05519162999999942E+05   7.05594162999999942E+05   7.05669162999999942E+05
             7.05744162999999942E+05   7.05819162999999942E+05   7.05894162999999942E+05   7.05969162999999942E+05   7.06044162999999942E+05
 ETA=   24   7.00494162999999942E+05   7.00569162999999942E+05   7.00644162999999942E+05   7.00719162999999942E+05   7.00794162999999942E+05
             7.00869162999999942E+05   7.00944162999999942E+05   7.01019162999999942E+05   7.01094162999999942E+05   7.01169162999999942E+05
             7.01244162999999942E+05   7.01319162999999942E+05   7.01394162999999942E+05   7.01469162999999942E+05   7.01544162999999942E+05
             7.01619162999999942E+05   7.01694162999999942E+05   7.01769162999999942E+05   7.01844162999999942E+05   7.01919162999999942E+05
             7.01994162999999942E+05   7.02069162999999942E+05   7.02144162999999942E+05   7.02219162999999942E+05   7.02294162999999942E+05
             7.02369162999999942E+05   7.02444162999999942E+05   7.02519162999999942E+05   7.02594162999999942E+05   7.02669162999999942E+05
             7.02744162999999942E+05   7.02819162999999942E+05   7.02894162999999942E+05   7.02969162999999942E+05   7.03044162999999942E+05
             7.03119162999999942E+05   7.03194162999999942E+05   7.03269162999999942E+05   7.03344162999999942E+05   7.03419162999999942E+05
             7.03494162999999942E+05   7.03569162999999942E+05   7.03644162999999942E+05   7.03719162999999942E+05   7.03794162999999942E+05
             7.03869162999999942E+05   7.03944162999999942E+05   7.04019162999999942E+05   7.04094162999999942E+05   7.04169162999999942E+05
             7.04244162999999942E+05   7.04319162999999942E+05   7.04394162999999942E+05   7.04469162999999942E+05   7.04544162999999942E+05
             7.04619162999999942E+05   7.04694162999999942E+05   7.04769162999999942E+05   7.04844162999999942E+05   7.04919162999999942E+05
             7.04994162999999942E+05   7.05069162999999942E+05   7.05144162999999942E+05   7.05219162999999942E+05   7.05294162999999942E+05
             7.05369162999999942E+05   7.05444162999999942E+05   7.05519162999999942E+05   7.05594162999999942E+05   7.05669162999999942E+05
             7.05744162999999942E+05   7.05819162999999942E+05   7.05894162999999942E+05   7.05969162999999942E+05   7.06044162999999942E+05
 ETA=   25   7.00494162999999942E+05   7.00569162999999942E+05   7.00644162999999942E+05   7.00719162999999942E+05   7.00794162999999942E+05
             7.00869162999999942E+05   7.00944162999999942E+05   7.01019162999999942E+05   7.01094162999999942E+05   7.01169162999999942E+05
             7.01244162999999942E+05   7.01319162999999942E+05   7.01394162999999942E+05   7.01469162999999942E+05   7.01544162999999942E+05
             7.01619162999999942E+05   7.01694162999999942E+05   7.01769162999999942E+05   7.01844162999999942E+05   7.01919162999999942E+05
             7.01994162999999942E+05   7.02069162999999942E+05   7.02144162999999942E+05   7.02219162999999942E+05   7.02294162999999942E+05
             7.02369162999999942E+05   7.02444162999999942E+05   7.02519162999999942E+05   7.02594162999999942E+05   7.02669162999999942E+05
             7.02744162999999942E+05   7.02819162999999942E+05   7.02894162999999942E+05   7.02969162999999942E+05   7.03044162999999942E+05
             7.03119162999999942E+05   7.03194162999999942E+05   7.03269162999999942E+05   7.03344162999999942E+05   7.03419162999999942E+05
             7.03494162999999942E+05   7.03569162999999942E+05   7.03644162999999942E+05   7.03719162999999942E+05   7.03794162999999942E+05
             7.03869162999999942E+05   7.03944162999999942E+05   7.04019162999999942E+05   7.04094162999999942E+05   7.04169162999999942E+05
             7.04244162999999942E+05   7.04319162999999942E+05   7.04394162999999942E+05   7.04469162999999942E+05   7.04544162999999942E+05
             7.04619162999999942E+05   7.04694162999999942E+05   7.04769162999999942E+05   7.04844162999999942E+05   7.04919162999999942E+05
             7.04994162999999942E+05   7.05069162999999942E+05   7.05144162999999942E+05   7.05219162999999942E+05   7.05294162999999942E+05
             7.05369162999999942E+05   7.05444162999999942E+05   7.05519162999999942E+05   7.05594162999999942E+05   7.05669162999999942E+05
             7.05744162999999942E+05   7.05819162999999942E+05   7.05894162999999942E+05   7.05969162999999942E+05   7.06044162999999942E+05
 ETA=   26   7.00494162999999942E+05   7.00569162999999942E+05   7.00644162999999942E+05   7.00719162999999942E+05   7.00794162999999942E+05
             7.00869162999999942E+05   7.00944162999999942E+05   7.01019162999999942E+05   7.01094162999999942E+05   7.01169162999999942E+05
             7.01244162999999942E+05   7.01319162999999942E+05   7.01394162999999942E+05   7.01469162999999942E+05   7.01544162999999942E+05
             7.01619162999999942E+05   7.01694162999999942E+05   7.01769162999999942E+05   7.01844162999999942E+05   7.01919162999999942E+05
             7.01994162999999942E+05   7.02069162999999942E+05   7.02144162999999942E+05   7.02219162999999942E+05   7.02294162999999942E+05
             7.02369162999999942E+05   7.02444162999999942E+05   7.02519162999999942E+05   7.02594162999999942E+05   7.02669162999999942E+05
             7.02744162999999942E+05   7.02819162999999942E+05   7.02894162999999942E+05   7.02969162999999942E+05   7.03044162999999942E+05
             7.03119162999999942E+05   7.03194162999999942E+05   7.03269162999999942E+05   7.03344162999999942E+05   7.03419162999999942E+05
             7.03494162999999942E+05   7.03569162999999942E+05   7.03644162999999942E+05   7.03719162999999942E+05   7.03794162999999942E+05
             7.03869162999999942E+05   7.03944162999999942E+05   7.04019162999999942E+05   7.04094162999999942E+05   7.04169162999999942E+05
             7.04244162999999942E+05   7.04319162999999942E+05   7.04394162999999942E+05   7.04469162999999942E+05   7.04544162999999942E+05
             7.04619162999999942E+05   7.04694162999999942E+05   7.04769162999999942E+05   7.04844162999999942E+05   7.04919162999999942E+05
             7.04994162999999942E+05   7.05069162999999942E+05   7.05144162999999942E+05   7.05219162999999942E+05   7.05294162999999942E+05
             7.05369162999999942E+05   7.05444162999999942E+05   7.05519162999999942E+05   7.05594162999999942E+05   7.05669162999999942E+05
             7.05744162999999942E+05   7.05819162999999942E+05   7.05894162999999942E+05   7.05969162999999942E+05   7.06044162999999942E+05
 ETA=   27   7.00494162999999942E+05   7.00569162999999942E+05   7.00644162999999942E+05   7.00719162999999942E+05   7.00794162999999942E+05
             7.00869162999999942E+05   7.00944162999999942E+05   7.01019162999999942E+05   7.01094162999999942E+05   7.01169162999999942E+05
             7.01244162999999942E+05   7.01319162999999942E+05   7.01394162999999942E+05   7.01469162999999942E+05   7.01544162999999942E+05
             7.01619162999999942E+05   7.01694162999999942E+05   7.01769162999999942E+05   7.01844162999999942E+05   7.01919162999999942E+05
             7.01994162999999942E+05   7.02069162999999942E+05   7.02144162999999942E+05   7.02219162999999942E+05   7.02294162999999942E+05
             7.02369162999999942E+05   7.02444162999999942E+05   7.02519162999999942E+05   7.02594162999999942E+05   7.02669162999999942E+05
             7.02744162999999942E+05   7.02819162999999942E+05   7.02894162999999942E+05   7.02969162999999942E+05   7.03044162999999942E+05
             7.03119162999999942E+05   7.03194162999999942E+05   7.03269162999999942E+05   7.03344162999999942E+05   7.03419162999999942E+05
             7.03494162999999942E+05   7.03569162999999942E+05   7.03644162999999942E+05   7.03719162999999942E+05   7.03794162999999942E+05
             7.03869162999999942E+05   7.03944162999999942E+05   7.04019162999999942E+05   7.04094162999999942E+05   7.04169162999999942E+05
             7.04244162999999942E+05   7.04319162999999942E+05   7.04394162999999942E+05   7.04469162999999942E+05   7.04544162999999942E+05
             7.04619162999999942E+05   7.04694162999999942E+05   7.04769162999999942E+05   7.04844162999999942E+05   7.04919162999999942E+05
             7.04994162999999942E+05   7.05069162999999942E+05   7.05144162999999942E+05   7.05219162999999942E+05   7.05294162999999942E+05
             7.05369162999999942E+05   7.05444162999999942E+05   7.05519162999999942E+05   7.05594162999999942E+05   7.05669162999999942E+05
             7.05744162999999942E+05   7.05819162999999942E+05   7.05894162999999942E+05   7.05969162999999942E+05   7.06044162999999942E+05
 ETA=   28   7.00494162999999942E+05   7.00569162999999942E+05   7.00644162999999942E+05   7.00719162999999942E+05   7.00794162999999942E+05
             7.00869162999999942E+05   7.00944162999999942E+05   7.01019162999999942E+05   7.01094162999999942E+05   7.01169162999999942E+05
             7.01244162999999942E+05   7.01319162999999942E+05   7.01394162999999942E+05   7.01469162999999942E+05   7.01544162999999942E+05
             7.01619162999999942E+05   7.01694162999999942E+05   7.01769162999999942E+05   7.01844162999999942E+05   7.01919162999999942E+05
             7.01994162999999942E+05   7.02069162999999942E+05   7.02144162999999942E+05   7.02219162999999942E+05   7.02294162999999942E+05
             7.02369162999999942E+05   7.02444162999999942E+05   7.02519162999999942E+05   7.02594162999999942E+05   7.02669162999999942E+05
             7.02744162999999942E+05   7.02819162999999942E+05   7.02894162999999942E+05   7.02969162999999942E+05   7.03044162999999942E+05
             7.03119162999999942E+05   7.03194162999999942E+05   7.03269162999999942E+05   7.03344162999999942E+05   7.03419162999999942E+05
             7.03494162999999942E+05   7.03569162999999942E+05   7.03644162999999942E+05   7.03719162999999942E+05   7.03794162999999942E+05
             7.03869162999999942E+05   7.03944162999999942E+05   7.04019162999999942E+05   7.04094162999999942E+05   7.04169162999999942E+05
             7.04244162999999942E+05   7.04319162999999942E+05   7.04394162999999942E+05   7.04469162999999942E+05   7.04544162999999942E+05
             7.04619162999999942E+05   7.04694162999999942E+05   7.04769162999999942E+05   7.04844162999999942E+05   7.04919162999999942E+05
             7.04994162999999942E+05   7.05069162999999942E+05   7.05144162999999942E+05   7.05219162999999942E+05   7.05294162999999942E+05
             7.05369162999999942E+05   7.05444162999999942E+05   7.05519162999999942E+05   7.05594162999999942E+05   7.05669162999999942E+05
             7.05744162999999942E+05   7.05819162999999942E+05   7.05894162999999942E+05   7.05969162999999942E+05   7.06044162999999942E+05
 ETA=   29   7.00494162999999942E+05   7.00569162999999942E+05   7.00644162999999942E+05   7.00719162999999942E+05   7.00794162999999942E+05
             7.00869162999999942E+05   7.00944162999999942E+05   7.01019162999999942E+05   7.01094162999999942E+05   7.01169162999999942E+05
             7.01244162999999942E+05   7.01319162999999942E+05   7.01394162999999942E+05   7.01469162999999942E+05   7.01544162999999942E+05
             7.01619162999999942E+05   7.01694162999999942E+05   7.01769162999999942E+05   7.01844162999999942E+05   7.01919162999999942E+05
             7.01994162999999942E+05   7.02069162999999942E+05   7.02144162999999942E+05   7.02219162999999942E+05   7.02294162999999942E+05
             7.02369162999999942E+05   7.02444162999999942E+05   7.02519162999999942E+05   7.02594162999999942E+05   7.02669162999999942E+05
             7.02744162999999942E+05   7.02819162999999942E+05   7.02894162999999942E+05   7.02969162999999942E+05   7.03044162999999942E+05
             7.03119162999999942E+05   7.03194162999999942E+05   7.03269162999999942E+05   7.03344162999999942E+05   7.03419162999999942E+05
             7.03494162999999942E+05   7.03569162999999942E+05   7.03644162999999942E+05   7.03719162999999942E+05   7.03794162999999942E+05
             7.03869162999999942E+05   7.03944162999999942E+05   7.04019162999999942E+05   7.04094162999999942E+05   7.04169162999999942E+05
             7.04244162999999942E+05   7.04319162999999942E+05   7.04394162999999942E+05   7.04469162999999942E+05   7.04544162999999942E+05
             7.04619162999999942E+05   7.04694162999999942E+05   7.04769162999999942E+05   7.04844162999999942E+05   7.04919162999999942E+05
             7.04994162999999942E+05   7.05069162999999942E+05   7.05144162999999942E+05   7.05219162999999942E+05   7.05294162999999942E+05
             7.05369162999999942E+05   7.05444162999999942E+05   7.05519162999999942E+05   7.05594162999999942E+05   7.05669162999999942E+05
             7.05744162999999942E+05   7.05819162999999942E+05   7.05894162999999942E+05   7.05969162999999942E+05   7.06044162999999942E+05
 ETA=   30   7.00494162999999942E+05   7.00569162999999942E+05   7.00644162999999942E+05   7.00719162999999942E+05   7.00794162999999942E+05
             7.00869162999999942E+05   7.00944162999999942E+05   7.01019162999999942E+05   7.01094162999999942E+05   7.01169162999999942E+05
             7.01244162999999942E+05   7.01319162999999942E+05   7.01394162999999942E+05   7.01469162999999942E+05   7.01544162999999942E+05
             7.01619162999999942E+05   7.01694162999999942E+05   7.01769162999999942E+05   7.01844162999999942E+05   7.01919162999999942E+05
             7.01994162999999942E+05   7.02069162999999942E+05   7.02144162999999942E+05   7.02219162999999942E+05   7.02294162999999942E+05
             7.02369162999999942E+05   7.02444162999999942E+05   7.02519162999999942E+05   7.02594162999999942E+05   7.02669162999999942E+05
             7.02744162999999942E+05   7.02819162999999942E+05   7.02894162999999942E+05   7.02969162999999942E+05   7.03044162999999942E+05
             7.03119162999999942E+05   7.03194162999999942E+05   7.03269162999999942E+05   7.03344162999999942E+05   7.03419162999999942E+05
             7.03494162999999942E+05   7.03569162999999942E+05   7.03644162999999942E+05   7.03719162999999942E+05   7.03794162999999942E+05
             7.03869162999999942E+05   7.03944162999999942E+05   7.04019162999999942E+05   7.04094162999999942E+05   7.04169162999999942E+05
             7.04244162999999942E+05   7.04319162999999942E+05   7.04394162999999942E+05   7.04469162999999942E+05   7.04544162999999942E+05
             7.04619162999999942E+05   7.04694162999999942E+05   7.04769162999999942E+05   7.04844162999999942E+05   7.04919162999999942E+05
             7.04994162999999942E+05   7.05069162999999942E+05   7.05144162999999942E+05   7.05219162999999942E+05   7.05294162999999942E+05
             7.05369162999999942E+05   7.05444162999999942E+05   7.05519162999999942E+05   7.05594162999999942E+05   7.05669162999999942E+05
             7.05744162999999942E+05   7.05819162999999942E+05   7.05894162999999942E+05   7.05969162999999942E+05   7.06044162999999942E+05
 ETA=   31   7.00494162999999942E+05   7.00569162999999942E+05   7.00644162999999942E+05   7.00719162999999942E+05   7.00794162999999942E+05
             7.00869162999999942E+05   7.00944162999999942E+05   7.01019162999999942E+05   7.01094162999999942E+05   7.01169162999999942E+05
             7.01244162999999942E+05   7.01319162999999942E+05   7.01394162999999942E+05   7.01469162999999942E+05   7.01544162999999942E+05
             7.01619162999999942E+05   7.01694162999999942E+05   7.01769162999999942E+05   7.01844162999999942E+05   7.01919162999999942E+05
             7.01994162999999942E+05   7.02069162999999942E+05   7.02144162999999942E+05   7.02219162999999942E+05   7.02294162999999942E+05
             7.02369162999999942E+05   7.02444162999999942E+05   7.02519162999999942E+05   7.02594162999999942E+05   7.02669162999999942E+05
             7.02744162999999942E+05   7.02819162999999942E+05   7.02894162999999942E+05   7.02969162999999942E+05   7.03044162999999942E+05
             7.03119162999999942E+05   7.03194162999999942E+05   7.03269162999999942E+05   7.03344162999999942E+05   7.03419162999999942E+05
             7.03494162999999942E+05   7.03569162999999942E+05   7.03644162999999942E+05   7.03719162999999942E+05   7.03794162999999942E+05
             7.03869162999999942E+05   7.03944162999999942E+05   7.04019162999999942E+05   7.04094162999999942E+05   7.04169162999999942E+05
             7.04244162999999942E+05   7.04319162999999942E+05   7.04394162999999942E+05   7.04469162999999942E+05   7.04544162999999942E+05
             7.04619162999999942E+05   7.04694162999999942E+05   7.04769162999999942E+05   7.04844162999999942E+05   7.04919162999999942E+05
             7.04994162999999942E+05   7.05069162999999942E+05   7.05144162999999942E+05   7.05219162999999942E+05   7.05294162999999942E+05
             7.05369162999999942E+05   7.05444162999999942E+05   7.05519162999999942E+05   7.05594162999999942E+05   7.05669162999999942E+05
             7.05744162999999942E+05   7.05819162999999942E+05   7.05894162999999942E+05   7.05969162999999942E+05   7.06044162999999942E+05
 ETA=   32   7.00494162999999942E+05   7.00569162999999942E+05   7.00644162999999942E+05   7.00719162999999942E+05   7.00794162999999942E+05
             7.00869162999999942E+05   7.00944162999999942E+05   7.01019162999999942E+05   7.01094162999999942E+05   7.01169162999999942E+05
             7.01244162999999942E+05   7.01319162999999942E+05   7.01394162999999942E+05   7.01469162999999942E+05   7.01544162999999942E+05
             7.01619162999999942E+05   7.01694162999999942E+05   7.01769162999999942E+05   7.01844162999999942E+05   7.01919162999999942E+05
             7.01994162999999942E+05   7.02069162999999942E+05   7.02144162999999942E+05   7.02219162999999942E+05   7.02294162999999942E+05
             7.02369162999999942E+05   7.02444162999999942E+05   7.02519162999999942E+05   7.02594162999999942E+05   7.02669162999999942E+05
             7.02744162999999942E+05   7.02819162999999942E+05   7.02894162999999942E+05   7.02969162999999942E+05   7.03044162999999942E+05
             7.03119162999999942E+05   7.03194162999999942E+05   7.03269162999999942E+05   7.03344162999999942E+05   7.03419162999999942E+05
             7.03494162999999942E+05   7.03569162999999942E+05   7.03644162999999942E+05   7.03719162999999942E+05   7.03794162999999942E+05
             7.03869162999999942E+05   7.03944162999999942E+05   7.04019162999999942E+05   7.04094162999999942E+05   7.04169162999999942E+05
             7.04244162999999942E+05   7.04319162999999942E+05   7.04394162999999942E+05   7.04469162999999942E+05   7.04544162999999942E+05
             7.04619162999999942E+05   7.04694162999999942E+05   7.04769162999999942E+05   7.04844162999999942E+05   7.04919162999999942E+05
             7.04994162999999942E+05   7.05069162999999942E+05   7.05144162999999942E+05   7.05219162999999942E+05   7.05294162999999942E+05
             7.05369162999999942E+05   7.05444162999999942E+05   7.05519162999999942E+05   7.05594162999999942E+05   7.05669162999999942E+05
             7.05744162999999942E+05   7.05819162999999942E+05   7.05894162999999942E+05   7.05969162999999942E+05   7.06044162999999942E+05
 ETA=   33   7.00494162999999942E+05   7.00569162999999942E+05   7.00644162999999942E+05   7.00719162999999942E+05   7.00794162999999942E+05
             7.00869162999999942E+05   7.00944162999999942E+05   7.01019162999999942E+05   7.01094162999999942E+05   7.01169162999999942E+05
             7.01244162999999942E+05   7.01319162999999942E+05   7.01394162999999942E+05   7.01469162999999942E+05   7.01544162999999942E+05
             7.01619162999999942E+05   7.01694162999999942E+05   7.01769162999999942E+05   7.01844162999999942E+05   7.01919162999999942E+05
             7.01994162999999942E+05   7.02069162999999942E+05   7.02144162999999942E+05   7.02219162999999942E+05   7.02294162999999942E+05
             7.02369162999999942E+05   7.02444162999999942E+05   7.02519162999999942E+05   7.02594162999999942E+05   7.02669162999999942E+05
             7.02744162999999942E+05   7.02819162999999942E+05   7.02894162999999942E+05   7.02969162999999942E+05   7.03044162999999942E+05
             7.03119162999999942E+05   7.03194162999999942E+05   7.03269162999999942E+05   7.03344162999999942E+05   7.03419162999999942E+05
             7.03494162999999942E+05   7.03569162999999942E+05   7.03644162999999942E+05   7.03719162999999942E+05   7.03794162999999942E+05
             7.03869162999999942E+05   7.03944162999999942E+05   7.04019162999999942E+05   7.04094162999999942E+05   7.04169162999999942E+05
             7.04244162999999942E+05   7.04319162999999942E+05   7.04394162999999942E+05   7.04469162999999942E+05   7.04544162999999942E+05
             7.04619162999999942E+05   7.04694162999999942E+05   7.04769162999999942E+05   7.04844162999999942E+05   7.04919162999999942E+05
             7.04994162999999942E+05   7.05069162999999942E+05   7.05144162999999942E+05   7.05219162999999942E+05   7.05294162999999942E+05
             7.05369162999999942E+05   7.05444162999999942E+05   7.05519162999999942E+05   7.05594162999999942E+05   7.05669162999999942E+05
             7.05744162999999942E+05   7.05819162999999942E+05   7.05894162999999942E+05   7.05969162999999942E+05   7.06044162999999942E+05
 ETA=   34   7.00494162999999942E+05   7.00569162999999942E+05   7.00644162999999942E+05   7.00719162999999942E+05   7.00794162999999942E+05
             7.00869162999999942E+05   7.00944162999999942E+05   7.01019162999999942E+05   7.01094162999999942E+05   7.01169162999999942E+05
             7.01244162999999942E+05   7.01319162999999942E+05   7.01394162999999942E+05   7.01469162999999942E+05   7.01544162999999942E+05
             7.01619162999999942E+05   7.01694162999999942E+05   7.01769162999999942E+05   7.01844162999999942E+05   7.01919162999999942E+05
             7.01994162999999942E+05   7.02069162999999942E+05   7.02144162999999942E+05   7.02219162999999942E+05   7.02294162999999942E+05
             7.02369162999999942E+05   7.02444162999999942E+05   7.02519162999999942E+05   7.02594162999999942E+05   7.02669162999999942E+05
             7.02744162999999942E+05   7.02819162999999942E+05   7.02894162999999942E+05   7.02969162999999942E+05   7.03044162999999942E+05
             7.03119162999999942E+05   7.03194162999999942E+05   7.03269162999999942E+05   7.03344162999999942E+05   7.03419162999999942E+05
             7.03494162999999942E+05   7.03569162999999942E+05   7.03644162999999942E+05   7.03719162999999942E+05   7.03794162999999942E+05
             7.03869162999999942E+05   7.03944162999999942E+05   7.04019162999999942E+05   7.04094162999999942E+05   7.04169162999999942E+05
             7.04244162999999942E+05   7.04319162999999942E+05   7.04394162999999942E+05   7.04469162999999942E+05   7.04544162999999942E+05
             7.04619162999999942E+05   7.04694162999999942E+05   7.04769162999999942E+05   7.04844162999999942E+05   7.04919162999999942E+05
             7.04994162999999942E+05   7.05069162999999942E+05   7.05144162999999942E+05   7.05219162999999942E+05   7.05294162999999942E+05
             7.05369162999999942E+05   7.05444162999999942E+05   7.05519162999999942E+05   7.05594162999999942E+05   7.05669162999999942E+05
             7.05744162999999942E+05   7.05819162999999942E+05   7.05894162999999942E+05   7.05969162999999942E+05   7.06044162999999942E+05
 ETA=   35   7.00494162999999942E+05   7.00569162999999942E+05   7.00644162999999942E+05   7.00719162999999942E+05   7.00794162999999942E+05
             7.00869162999999942E+05   7.00944162999999942E+05   7.01019162999999942E+05   7.01094162999999942E+05   7.01169162999999942E+05
             7.01244162999999942E+05   7.01319162999999942E+05   7.01394162999999942E+05   7.01469162999999942E+05   7.01544162999999942E+05
             7.01619162999999942E+05   7.01694162999999942E+05   7.01769162999999942E+05   7.01844162999999942E+05   7.01919162999999942E+05
             7.01994162999999942E+05   7.02069162999999942E+05   7.02144162999999942E+05   7.02219162999999942E+05   7.02294162999999942E+05
             7.02369162999999942E+05   7.02444162999999942E+05   7.02519162999999942E+05   7.02594162999999942E+05   7.02669162999999942E+05
             7.02744162999999942E+05   7.02819162999999942E+05   7.02894162999999942E+05   7.02969162999999942E+05   7.03044162999999942E+05
             7.03119162999999942E+05   7.03194162999999942E+05   7.03269162999999942E+05   7.03344162999999942E+05   7.03419162999999942E+05
             7.03494162999999942E+05   7.03569162999999942E+05   7.03644162999999942E+05   7.03719162999999942E+05   7.03794162999999942E+05
             7.03869162999999942E+05   7.03944162999999942E+05   7.04019162999999942E+05   7.04094162999999942E+05   7.04169162999999942E+05
             7.04244162999999942E+05   7.04319162999999942E+05   7.04394162999999942E+05   7.04469162999999942E+05   7.04544162999999942E+05
             7.04619162999999942E+05   7.04694162999999942E+05   7.04769162999999942E+05   7.04844162999999942E+05   7.04919162999999942E+05
             7.04994162999999942E+05   7.05069162999999942E+05   7.05144162999999942E+05   7.05219162999999942E+05   7.05294162999999942E+05
             7.05369162999999942E+05   7.05444162999999942E+05   7.05519162999999942E+05   7.05594162999999942E+05   7.05669162999999942E+05
             7.05744162999999942E+05   7.05819162999999942E+05   7.05894162999999942E+05   7.05969162999999942E+05   7.06044162999999942E+05
 ETA=   36   7.00494162999999942E+05   7.00569162999999942E+05   7.00644162999999942E+05   7.00719162999999942E+05   7.00794162999999942E+05
             7.00869162999999942E+05   7.00944162999999942E+05   7.01019162999999942E+05   7.01094162999999942E+05   7.01169162999999942E+05
             7.01244162999999942E+05   7.01319162999999942E+05   7.01394162999999942E+05   7.01469162999999942E+05   7.01544162999999942E+05
             7.01619162999999942E+05   7.01694162999999942E+05   7.01769162999999942E+05   7.01844162999999942E+05   7.01919162999999942E+05
             7.01994162999999942E+05   7.02069162999999942E+05   7.02144162999999942E+05   7.02219162999999942E+05   7.02294162999999942E+05
             7.02369162999999942E+05   7.02444162999999942E+05   7.02519162999999942E+05   7.02594162999999942E+05   7.02669162999999942E+05
             7.02744162999999942E+05   7.02819162999999942E+05   7.02894162999999942E+05   7.02969162999999942E+05   7.03044162999999942E+05
             7.03119162999999942E+05   7.03194162999999942E+05   7.03269162999999942E+05   7.03344162999999942E+05   7.03419162999999942E+05
             7.03494162999999942E+05   7.03569162999999942E+05   7.03644162999999942E+05   7.03719162999999942E+05   7.03794162999999942E+05
             7.03869162999999942E+05   7.03944162999999942E+05   7.04019162999999942E+05   7.04094162999999942E+05   7.04169162999999942E+05
             7.04244162999999942E+05   7.04319162999999942E+05   7.04394162999999942E+05   7.04469162999999942E+05   7.04544162999999942E+05
             7.04619162999999942E+05   7.04694162999999942E+05   7.04769162999999942E+05   7.04844162999999942E+05   7.04919162999999942E+05
             7.04994162999999942E+05   7.05069162999999942E+05   7.05144162999999942E+05   7.05219162999999942E+05   7.05294162999999942E+05
             7.05369162999999942E+05   7.05444162999999942E+05   7.05519162999999942E+05   7.05594162999999942E+05   7.05669162999999942E+05
             7.05744162999999942E+05   7.05819162999999942E+05   7.05894162999999942E+05   7.05969162999999942E+05   7.06044162999999942E+05
 ETA=   37   7.00494162999999942E+05   7.00569162999999942E+05   7.00644162999999942E+05   7.00719162999999942E+05   7.00794162999999942E+05
             7.00869162999999942E+05   7.00944162999999942E+05   7.01019162999999942E+05   7.01094162999999942E+05   7.01169162999999942E+05
             7.01244162999999942E+05   7.01319162999999942E+05   7.01394162999999942E+05   7.01469162999999942E+05   7.01544162999999942E+05
             7.01619162999999942E+05   7.01694162999999942E+05   7.01769162999999942E+05   7.01844162999999942E+05   7.01919162999999942E+05
             7.01994162999999942E+05   7.02069162999999942E+05   7.02144162999999942E+05   7.02219162999999942E+05   7.02294162999999942E+05
             7.02369162999999942E+05   7.02444162999999942E+05   7.02519162999999942E+05   7.02594162999999942E+05   7.02669162999999942E+05
             7.02744162999999942E+05   7.02819162999999942E+05   7.02894162999999942E+05   7.02969162999999942E+05   7.03044162999999942E+05
             7.03119162999999942E+05   7.03194162999999942E+05   7.03269162999999942E+05   7.03344162999999942E+05   7.03419162999999942E+05
             7.03494162999999942E+05   7.03569162999999942E+05   7.03644162999999942E+05   7.03719162999999942E+05   7.03794162999999942E+05
             7.03869162999999942E+05   7.03944162999999942E+05   7.04019162999999942E+05   7.04094162999999942E+05   7.04169162999999942E+05
             7.04244162999999942E+05   7.04319162999999942E+05   7.04394162999999942E+05   7.04469162999999942E+05   7.04544162999999942E+05
             7.04619162999999942E+05   7.04694162999999942E+05   7.04769162999999942E+05   7.04844162999999942E+05   7.04919162999999942E+05
             7.04994162999999942E+05   7.05069162999999942E+05   7.05144162999999942E+05   7.05219162999999942E+05   7.05294162999999942E+05
             7.05369162999999942E+05   7.05444162999999942E+05   7.05519162999999942E+05   7.05594162999999942E+05   7.05669162999999942E+05
             7.05744162999999942E+05   7.05819162999999942E+05   7.05894162999999942E+05   7.05969162999999942E+05   7.06044162999999942E+05
 ETA=   38   7.00494162999999942E+05   7.00569162999999942E+05   7.00644162999999942E+05   7.00719162999999942E+05   7.00794162999999942E+05
             7.00869162999999942E+05   7.00944162999999942E+05   7.01019162999999942E+05   7.01094162999999942E+05   7.01169162999999942E+05
             7.01244162999999942E+05   7.01319162999999942E+05   7.01394162999999942E+05   7.01469162999999942E+05   7.01544162999999942E+05
             7.01619162999999942E+05   7.01694162999999942E+05   7.01769162999999942E+05   7.01844162999999942E+05   7.01919162999999942E+05
             7.01994162999999942E+05   7.02069162999999942E+05   7.02144162999999942E+05   7.02219162999999942E+05   7.02294162999999942E+05
             7.02369162999999942E+05   7.02444162999999942E+05   7.02519162999999942E+05   7.02594162999999942E+05   7.02669162999999942E+05
             7.02744162999999942E+05   7.02819162999999942E+05   7.02894162999999942E+05   7.02969162999999942E+05   7.03044162999999942E+05
             7.03119162999999942E+05   7.03194162999999942E+05   7.03269162999999942E+05   7.03344162999999942E+05   7.03419162999999942E+05
             7.03494162999999942E+05   7.03569162999999942E+05   7.03644162999999942E+05   7.03719162999999942E+05   7.03794162999999942E+05
             7.03869162999999942E+05   7.03944162999999942E+05   7.04019162999999942E+05   7.04094162999999942E+05   7.04169162999999942E+05
             7.04244162999999942E+05   7.04319162999999942E+05   7.04394162999999942E+05   7.04469162999999942E+05   7.04544162999999942E+05
[...]
             9.32745600799999945E+06   9.32745600799999945E+06   9.32745600799999945E+06   9.32745600799999945E+06   9.32745600799999945E+06
             9.32745600799999945E+06   9.32745600799999945E+06   9.32745600799999945E+06   9.32745600799999945E+06   9.32745600799999945E+06
             9.32745600799999945E+06   9.32745600799999945E+06   9.32745600799999945E+06   9.32745600799999945E+06   9.32745600799999945E+06
             9.32745600799999945E+06   9.32745600799999945E+06   9.32745600799999945E+06   9.32745600799999945E+06   9.32745600799999945E+06
             9.32745600799999945E+06   9.32745600799999945E+06   9.32745600799999945E+06   9.32745600799999945E+06   9.32745600799999945E+06
             9.32745600799999945E+06   9.32745600799999945E+06   9.32745600799999945E+06   9.32745600799999945E+06   9.32745600799999945E+06
 ETA=   60   9.32753100799999945E+06   9.32753100799999945E+06   9.32753100799999945E+06   9.32753100799999945E+06   9.32753100799999945E+06
             9.32753100799999945E+06   9.32753100799999945E+06   9.32753100799999945E+06   9.32753100799999945E+06   9.32753100799999945E+06
             9.32753100799999945E+06   9.32753100799999945E+06   9.32753100799999945E+06   9.32753100799999945E+06   9.32753100799999945E+06
             9.32753100799999945E+06   9.32753100799999945E+06   9.32753100799999945E+06   9.32753100799999945E+06   9.32753100799999945E+06
             9.32753100799999945E+06   9.32753100799999945E+06   9.32753100799999945E+06   9.32753100799999945E+06   9.32753100799999945E+06
             9.32753100799999945E+06   9.32753100799999945E+06   9.32753100799999945E+06   9.32753100799999945E+06   9.32753100799999945E+06
             9.32753100799999945E+06   9.32753100799999945E+06   9.32753100799999945E+06   9.32753100799999945E+06   9.32753100799999945E+06
             9.32753100799999945E+06   9.32753100799999945E+06   9.32753100799999945E+06   9.32753100799999945E+06   9.32753100799999945E+06
             9.32753100799999945E+06   9.32753100799999945E+06   9.32753100799999945E+06   9.32753100799999945E+06   9.32753100799999945E+06
             9.32753100799999945E+06   9.32753100799999945E+06   9.32753100799999945E+06   9.32753100799999945E+06   9.32753100799999945E+06
             9.32753100799999945E+06   9.32753100799999945E+06   9.32753100799999945E+06   9.32753100799999945E+06   9.32753100799999945E+06
             9.32753100799999945E+06   9.32753100799999945E+06   9.32753100799999945E+06   9.32753100799999945E+06   9.32753100799999945E+06
             9.32753100799999945E+06   9.32753100799999945E+06   9.32753100799999945E+06   9.32753100799999945E+06   9.32753100799999945E+06
             9.32753100799999945E+06   9.32753100799999945E+06   9.32753100799999945E+06   9.32753100799999945E+06   9.32753100799999945E+06
             9.32753100799999945E+06   9.32753100799999945E+06   9.32753100799999945E+06   9.32753100799999945E+06   9.32753100799999945E+06
 ETA=   61   9.32760600799999945E+06   9.32760600799999945E+06   9.32760600799999945E+06   9.32760600799999945E+06   9.32760600799999945E+06
             9.32760600799999945E+06   9.32760600799999945E+06   9.32760600799999945E+06   9.32760600799999945E+06   9.32760600799999945E+06
             9.32760600799999945E+06   9.32760600799999945E+06   9.32760600799999945E+06   9.32760600799999945E+06   9.32760600799999945E+06
             9.32760600799999945E+06   9.32760600799999945E+06   9.32760600799999945E+06   9.32760600799999945E+06   9.32760600799999945E+06
             9.32760600799999945E+06   9.32760600799999945E+06   9.32760600799999945E+06   9.32760600799999945E+06   9.32760600799999945E+06
             9.32760600799999945E+06   9.32760600799999945E+06   9.32760600799999945E+06   9.32760600799999945E+06   9.32760600799999945E+06
             9.32760600799999945E+06   9.32760600799999945E+06   9.32760600799999945E+06   9.32760600799999945E+06   9.32760600799999945E+06
             9.32760600799999945E+06   9.32760600799999945E+06   9.32760600799999945E+06   9.32760600799999945E+06   9.32760600799999945E+06
             9.32760600799999945E+06   9.32760600799999945E+06   9.32760600799999945E+06   9.32760600799999945E+06   9.32760600799999945E+06
             9.32760600799999945E+06   9.32760600799999945E+06   9.32760600799999945E+06   9.32760600799999945E+06   9.32760600799999945E+06
             9.32760600799999945E+06   9.32760600799999945E+06   9.32760600799999945E+06   9.32760600799999945E+06   9.32760600799999945E+06
             9.32760600799999945E+06   9.32760600799999945E+06   9.32760600799999945E+06   9.32760600799999945E+06   9.32760600799999945E+06
             9.32760600799999945E+06   9.32760600799999945E+06   9.32760600799999945E+06   9.32760600799999945E+06   9.32760600799999945E+06
             9.32760600799999945E+06   9.32760600799999945E+06   9.32760600799999945E+06   9.32760600799999945E+06   9.32760600799999945E+06
             9.32760600799999945E+06   9.32760600799999945E+06   9.32760600799999945E+06   9.32760600799999945E+06   9.32760600799999945E+06
 ETA=   62   9.32768100799999945E+06   9.32768100799999945E+06   9.32768100799999945E+06   9.32768100799999945E+06   9.32768100799999945E+06
             9.32768100799999945E+06   9.32768100799999945E+06   9.32768100799999945E+06   9.32768100799999945E+06   9.32768100799999945E+06
             9.32768100799999945E+06   9.32768100799999945E+06   9.32768100799999945E+06   9.32768100799999945E+06   9.32768100799999945E+06
             9.32768100799999945E+06   9.32768100799999945E+06   9.32768100799999945E+06   9.32768100799999945E+06   9.32768100799999945E+06
             9.32768100799999945E+06   9.32768100799999945E+06   9.32768100799999945E+06   9.32768100799999945E+06   9.32768100799999945E+06
             9.32768100799999945E+06   9.32768100799999945E+06   9.32768100799999945E+06   9.32768100799999945E+06   9.32768100799999945E+06
             9.32768100799999945E+06   9.32768100799999945E+06   9.32768100799999945E+06   9.32768100799999945E+06   9.32768100799999945E+06
             9.32768100799999945E+06   9.32768100799999945E+06   9.32768100799999945E+06   9.32768100799999945E+06   9.32768100799999945E+06
             9.32768100799999945E+06   9.32768100799999945E+06   9.32768100799999945E+06   9.32768100799999945E+06   9.32768100799999945E+06
             9.32768100799999945E+06   9.32768100799999945E+06   9.32768100799999945E+06   9.32768100799999945E+06   9.32768100799999945E+06
             9.32768100799999945E+06   9.32768100799999945E+06   9.32768100799999945E+06   9.32768100799999945E+06   9.32768100799999945E+06
             9.32768100799999945E+06   9.32768100799999945E+06   9.32768100799999945E+06   9.32768100799999945E+06   9.32768100799999945E+06
             9.32768100799999945E+06   9.32768100799999945E+06   9.32768100799999945E+06   9.32768100799999945E+06   9.32768100799999945E+06
             9.32768100799999945E+06   9.32768100799999945E+06   9.32768100799999945E+06   9.32768100799999945E+06   9.32768100799999945E+06
             9.32768100799999945E+06   9.32768100799999945E+06   9.32768100799999945E+06   9.32768100799999945E+06   9.32768100799999945E+06
 ETA=   63   9.32775600799999945E+06   9.32775600799999945E+06   9.32775600799999945E+06   9.32775600799999945E+06   9.32775600799999945E+06
             9.32775600799999945E+06   9.32775600799999945E+06   9.32775600799999945E+06   9.32775600799999945E+06   9.32775600799999945E+06
             9.32775600799999945E+06   9.32775600799999945E+06   9.32775600799999945E+06   9.32775600799999945E+06   9.32775600799999945E+06
             9.32775600799999945E+06   9.32775600799999945E+06   9.32775600799999945E+06   9.32775600799999945E+06   9.32775600799999945E+06
             9.32775600799999945E+06   9.32775600799999945E+06   9.32775600799999945E+06   9.32775600799999945E+06   9.32775600799999945E+06
             9.32775600799999945E+06   9.32775600799999945E+06   9.32775600799999945E+06   9.32775600799999945E+06   9.32775600799999945E+06
             9.32775600799999945E+06   9.32775600799999945E+06   9.32775600799999945E+06   9.32775600799999945E+06   9.32775600799999945E+06
             9.32775600799999945E+06   9.32775600799999945E+06   9.32775600799999945E+06   9.32775600799999945E+06   9.32775600799999945E+06
             9.32775600799999945E+06   9.32775600799999945E+06   9.32775600799999945E+06   9.32775600799999945E+06   9.32775600799999945E+06
             9.32775600799999945E+06   9.32775600799999945E+06   9.32775600799999945E+06   9.32775600799999945E+06   9.32775600799999945E+06
             9.32775600799999945E+06   9.32775600799999945E+06   9.32775600799999945E+06   9.32775600799999945E+06   9.32775600799999945E+06
             9.32775600799999945E+06   9.32775600799999945E+06   9.32775600799999945E+06   9.32775600799999945E+06   9.32775600799999945E+06
             9.32775600799999945E+06   9.32775600799999945E+06   9.32775600799999945E+06   9.32775600799999945E+06   9.32775600799999945E+06
             9.32775600799999945E+06   9.32775600799999945E+06   9.32775600799999945E+06   9.32775600799999945E+06   9.32775600799999945E+06
             9.32775600799999945E+06   9.32775600799999945E+06   9.32775600799999945E+06   9.32775600799999945E+06   9.32775600799999945E+06
 ETA=   64   9.32783100799999945E+06   9.32783100799999945E+06   9.32783100799999945E+06   9.32783100799999945E+06   9.32783100799999945E+06
             9.32783100799999945E+06   9.32783100799999945E+06   9.32783100799999945E+06   9.32783100799999945E+06   9.32783100799999945E+06
             9.32783100799999945E+06   9.32783100799999945E+06   9.32783100799999945E+06   9.32783100799999945E+06   9.32783100799999945E+06
             9.32783100799999945E+06   9.32783100799999945E+06   9.32783100799999945E+06   9.32783100799999945E+06   9.32783100799999945E+06
             9.32783100799999945E+06   9.32783100799999945E+06   9.32783100799999945E+06   9.32783100799999945E+06   9.32783100799999945E+06
             9.32783100799999945E+06   9.32783100799999945E+06   9.32783100799999945E+06   9.32783100799999945E+06   9.32783100799999945E+06
             9.32783100799999945E+06   9.32783100799999945E+06   9.32783100799999945E+06   9.32783100799999945E+06   9.32783100799999945E+06
             9.32783100799999945E+06   9.32783100799999945E+06   9.32783100799999945E+06   9.32783100799999945E+06   9.32783100799999945E+06
             9.32783100799999945E+06   9.32783100799999945E+06   9.32783100799999945E+06   9.32783100799999945E+06   9.32783100799999945E+06
             9.32783100799999945E+06   9.32783100799999945E+06   9.32783100799999945E+06   9.32783100799999945E+06   9.32783100799999945E+06
             9.32783100799999945E+06   9.32783100799999945E+06   9.32783100799999945E+06   9.32783100799999945E+06   9.32783100799999945E+06
             9.32783100799999945E+06   9.32783100799999945E+06   9.32783100799999945E+06   9.32783100799999945E+06   9.32783100799999945E+06
             9.32783100799999945E+06   9.32783100799999945E+06   9.32783100799999945E+06   9.32783100799999945E+06   9.32783100799999945E+06
             9.32783100799999945E+06   9.32783100799999945E+06   9.32783100799999945E+06   9.32783100799999945E+06   9.32783100799999945E+06
             9.32783100799999945E+06   9.32783100799999945E+06   9.32783100799999945E+06   9.32783100799999945E+06   9.32783100799999945E+06
 ETA=   65   9.32790600799999945E+06   9.32790600799999945E+06   9.32790600799999945E+06   9.32790600799999945E+06   9.32790600799999945E+06
             9.32790600799999945E+06   9.32790600799999945E+06   9.32790600799999945E+06   9.32790600799999945E+06   9.32790600799999945E+06
             9.32790600799999945E+06   9.32790600799999945E+06   9.32790600799999945E+06   9.32790600799999945E+06   9.32790600799999945E+06
             9.32790600799999945E+06   9.32790600799999945E+06   9.32790600799999945E+06   9.32790600799999945E+06   9.32790600799999945E+06
             9.32790600799999945E+06   9.32790600799999945E+06   9.32790600799999945E+06   9.32790600799999945E+06   9.32790600799999945E+06
             9.32790600799999945E+06   9.32790600799999945E+06   9.32790600799999945E+06   9.32790600799999945E+06   9.32790600799999945E+06
             9.32790600799999945E+06   9.32790600799999945E+06   9.32790600799999945E+06   9.32790600799999945E+06   9.32790600799999945E+06
             9.32790600799999945E+06   9.32790600799999945E+06   9.32790600799999945E+06   9.32790600799999945E+06   9.32790600799999945E+06
             9.32790600799999945E+06   9.32790600799999945E+06   9.32790600799999945E+06   9.32790600799999945E+06   9.32790600799999945E+06
             9.32790600799999945E+06   9.32790600799999945E+06   9.32790600799999945E+06   9.32790600799999945E+06   9.32790600799999945E+06
             9.32790600799999945E+06   9.32790600799999945E+06   9.32790600799999945E+06   9.32790600799999945E+06   9.32790600799999945E+06
             9.32790600799999945E+06   9.32790600799999945E+06   9.32790600799999945E+06   9.32790600799999945E+06   9.32790600799999945E+06
             9.32790600799999945E+06   9.32790600799999945E+06   9.32790600799999945E+06   9.32790600799999945E+06   9.32790600799999945E+06
             9.32790600799999945E+06   9.32790600799999945E+06   9.32790600799999945E+06   9.32790600799999945E+06   9.32790600799999945E+06
             9.32790600799999945E+06   9.32790600799999945E+06   9.32790600799999945E+06   9.32790600799999945E+06   9.32790600799999945E+06
 ETA=   66   9.32798100799999945E+06   9.32798100799999945E+06   9.32798100799999945E+06   9.32798100799999945E+06   9.32798100799999945E+06
             9.32798100799999945E+06   9.32798100799999945E+06   9.32798100799999945E+06   9.32798100799999945E+06   9.32798100799999945E+06
             9.32798100799999945E+06   9.32798100799999945E+06   9.32798100799999945E+06   9.32798100799999945E+06   9.32798100799999945E+06
             9.32798100799999945E+06   9.32798100799999945E+06   9.32798100799999945E+06   9.32798100799999945E+06   9.32798100799999945E+06
             9.32798100799999945E+06   9.32798100799999945E+06   9.32798100799999945E+06   9.32798100799999945E+06   9.32798100799999945E+06
             9.32798100799999945E+06   9.32798100799999945E+06   9.32798100799999945E+06   9.32798100799999945E+06   9.32798100799999945E+06
             9.32798100799999945E+06   9.32798100799999945E+06   9.32798100799999945E+06   9.32798100799999945E+06   9.32798100799999945E+06
             9.32798100799999945E+06   9.32798100799999945E+06   9.32798100799999945E+06   9.32798100799999945E+06   9.32798100799999945E+06
             9.32798100799999945E+06   9.32798100799999945E+06   9.32798100799999945E+06   9.32798100799999945E+06   9.32798100799999945E+06
             9.32798100799999945E+06   9.32798100799999945E+06   9.32798100799999945E+06   9.32798100799999945E+06   9.32798100799999945E+06
             9.32798100799999945E+06   9.32798100799999945E+06   9.32798100799999945E+06   9.32798100799999945E+06   9.32798100799999945E+06
             9.32798100799999945E+06   9.32798100799999945E+06   9.32798100799999945E+06   9.32798100799999945E+06   9.32798100799999945E+06
             9.32798100799999945E+06   9.32798100799999945E+06   9.32798100799999945E+06   9.32798100799999945E+06   9.32798100799999945E+06
             9.32798100799999945E+06   9.32798100799999945E+06   9.32798100799999945E+06   9.32798100799999945E+06   9.32798100799999945E+06
             9.32798100799999945E+06   9.32798100799999945E+06   9.32798100799999945E+06   9.32798100799999945E+06   9.32798100799999945E+06
 ETA=   67   9.32805600799999945E+06   9.32805600799999945E+06   9.32805600799999945E+06   9.32805600799999945E+06   9.32805600799999945E+06
             9.32805600799999945E+06   9.32805600799999945E+06   9.32805600799999945E+06   9.32805600799999945E+06   9.32805600799999945E+06
             9.32805600799999945E+06   9.32805600799999945E+06   9.32805600799999945E+06   9.32805600799999945E+06   9.32805600799999945E+06
             9.32805600799999945E+06   9.32805600799999945E+06   9.32805600799999945E+06   9.32805600799999945E+06   9.32805600799999945E+06
             9.32805600799999945E+06   9.32805600799999945E+06   9.32805600799999945E+06   9.32805600799999945E+06   9.32805600799999945E+06
             9.32805600799999945E+06   9.32805600799999945E+06   9.32805600799999945E+06   9.32805600799999945E+06   9.32805600799999945E+06
             9.32805600799999945E+06   9.32805600799999945E+06   9.32805600799999945E+06   9.32805600799999945E+06   9.32805600799999945E+06
             9.32805600799999945E+06   9.32805600799999945E+06   9.32805600799999945E+06   9.32805600799999945E+06   9.32805600799999945E+06
             9.32805600799999945E+06   9.32805600799999945E+06   9.32805600799999945E+06   9.32805600799999945E+06   9.32805600799999945E+06
             9.32805600799999945E+06   9.32805600799999945E+06   9.32805600799999945E+06   9.32805600799999945E+06   9.32805600799999945E+06
             9.32805600799999945E+06   9.32805600799999945E+06   9.32805600799999945E+06   9.32805600799999945E+06   9.32805600799999945E+06
             9.32805600799999945E+06   9.32805600799999945E+06   9.32805600799999945E+06   9.32805600799999945E+06   9.32805600799999945E+06
             9.32805600799999945E+06   9.32805600799999945E+06   9.32805600799999945E+06   9.32805600799999945E+06   9.32805600799999945E+06
             9.32805600799999945E+06   9.32805600799999945E+06   9.32805600799999945E+06   9.32805600799999945E+06   9.32805600799999945E+06
             9.32805600799999945E+06   9.32805600799999945E+06   9.32805600799999945E+06   9.32805600799999945E+06   9.32805600799999945E+06
 ETA=   68   9.32813100799999945E+06   9.32813100799999945E+06   9.32813100799999945E+06   9.32813100799999945E+06   9.32813100799999945E+06
             9.32813100799999945E+06   9.32813100799999945E+06   9.32813100799999945E+06   9.32813100799999945E+06   9.32813100799999945E+06
             9.32813100799999945E+06   9.32813100799999945E+06   9.32813100799999945E+06   9.32813100799999945E+06   9.32813100799999945E+06
             9.32813100799999945E+06   9.32813100799999945E+06   9.32813100799999945E+06   9.32813100799999945E+06   9.32813100799999945E+06
             9.32813100799999945E+06   9.32813100799999945E+06   9.32813100799999945E+06   9.32813100799999945E+06   9.32813100799999945E+06
             9.32813100799999945E+06   9.32813100799999945E+06   9.32813100799999945E+06   9.32813100799999945E+06   9.32813100799999945E+06
             9.32813100799999945E+06   9.32813100799999945E+06   9.32813100799999945E+06   9.32813100799999945E+06   9.32813100799999945E+06
             9.32813100799999945E+06   9.32813100799999945E+06   9.32813100799999945E+06   9.32813100799999945E+06   9.32813100799999945E+06
             9.32813100799999945E+06   9.32813100799999945E+06   9.32813100799999945E+06   9.32813100799999945E+06   9.32813100799999945E+06
             9.32813100799999945E+06   9.32813100799999945E+06   9.32813100799999945E+06   9.32813100799999945E+06   9.32813100799999945E+06
             9.32813100799999945E+06   9.32813100799999945E+06   9.32813100799999945E+06   9.32813100799999945E+06   9.32813100799999945E+06
             9.32813100799999945E+06   9.32813100799999945E+06   9.32813100799999945E+06   9.32813100799999945E+06   9.32813100799999945E+06
             9.32813100799999945E+06   9.32813100799999945E+06   9.32813100799999945E+06   9.32813100799999945E+06   9.32813100799999945E+06
             9.32813100799999945E+06   9.32813100799999945E+06   9.32813100799999945E+06   9.32813100799999945E+06   9.32813100799999945E+06
             9.32813100799999945E+06   9.32813100799999945E+06   9.32813100799999945E+06   9.32813100799999945E+06   9.32813100799999945E+06
